version 3
run Aodv-0-20241118-15:27:13-24992
attr configname Aodv
attr datetime 20241118-15:27:13
attr datetimef 20241118-152713
attr experiment Aodv
attr inifile omnetpp.ini
attr iterationvars ""
attr iterationvarsd ""
attr iterationvarsf ""
attr measurement ""
attr network manet2.ManetprotocolsShowcaseB
attr processid 24992
attr repetition 0
attr replication #0
attr resultdir results
attr runnumber 0
attr seedset 0
config image-path ../../inet4.5/images
config extends MobileNodesBase
config sim-time-limit 1000s
config *.*.routingApp.typename Aodv
config *.*.routingApp.activeRouteTimeout 1s
config *.*.routingApp.deletePeriod 0.5s
config *.visualizer.*.routingTableVisualizer[0].displayRoutingTables true
config *.visualizer.*.routingTableVisualizer[0].destinationFilter "\"destination\""
config network manet2.ManetprotocolsShowcaseB
config **.transmitter.power 10mW
config *.node*.mobility.typename inet.mobility.single.RandomWaypointMobility
config *.node*.mobility.initialPositionX "uniform(0m, 2000m)"
config *.node*.mobility.initialPositionY "uniform(0m, 2000m)"
config *.node*.mobility.waitTime "uniform(1s, 5s)"
config *.node*.mobility.speed "uniform(5mps, 15mps)"
config **.constraintAreaMaxX 2000m
config **.constraintAreaMaxY 2000m
config **.constraintAreaMinX 0m
config **.constraintAreaMinY 0m
config **.constraintAreaMinZ 0m
config **.constraintAreaMaxZ 0m
config *.visualizer.*.routingTableVisualizer[0].displayLabels false
config *.visualizer.*.routingTableVisualizer[0].displayRoutesIndividually false
config *.visualizer.*.routingTableVisualizer[0].lineShift 0
config *.visualizer.*.networkRouteVisualizer[0].displayRoutes true
config *.visualizer.*.networkRouteVisualizer[0].packetFilter "\"*ping*\""
config *.visualizer.*.interfaceTableVisualizer[0].displayInterfaceTables true
config *.visualizer.*.interfaceTableVisualizer[0].format "\"%a/%l\""
config *.source1.numApps 1
config *.source2.numApps 1
config *.source3.numApps 1
config *.source4.numApps 1
config *.source5.numApps 1
config *.source1.app[0].typename PingApp
config *.source1.app[0].destAddr "\"destination1\""
config *.source1.app[0].printPing true
config *.source2.app[0].typename PingApp
config *.source2.app[0].destAddr "\"destination2\""
config *.source2.app[0].printPing true
config *.source3.app[0].typename PingApp
config *.source3.app[0].destAddr "\"destination3\""
config *.source3.app[0].printPing true
config *.source4.app[0].typename PingApp
config *.source4.app[0].destAddr "\"destination4\""
config *.source4.app[0].printPing true
config *.source5.app[0].typename PingApp
config *.source5.app[0].destAddr "\"destination5\""
config *.source5.app[0].printPing true
config *.visualizer.*.numDataLinkVisualizers 5
config *.visualizer.*.dataLinkVisualizer[*].activityLevel "\"peer\""
config *.visualizer.*.dataLinkVisualizer[*].displayLinks true
config *.visualizer.*.dataLinkVisualizer[0].packetFilter "\"aodv::Rreq or GPSRBeacon\""
config *.visualizer.*.dataLinkVisualizer[1].packetFilter "\"ping* or UDP*\""
config *.visualizer.*.dataLinkVisualizer[1].*Color "\"blue\""
config *.visualizer.*.dataLinkVisualizer[2].packetFilter "\"aodv::Rrep\""
config *.visualizer.*.dataLinkVisualizer[2].*Color "\"darkslategray\""
config *.visualizer.*.dataLinkVisualizer[3].packetFilter "\"aodv::Rerr\""
config *.visualizer.*.dataLinkVisualizer[3].*Color "\"red\""
config *.visualizer.*.dataLinkVisualizer[4].packetFilter "\"Hello\""
config *.visualizer.*.dataLinkVisualizer[4].*Color "\"green\""
config **.wlan[*].bitrate 11Mbps
config *.configurator.addStaticRoutes false
config **.netmaskRoutes "\"\""
config **.arp.typename GlobalArp
config sim-time-limit 1000s

vector 0 ManetprotocolsShowcaseB.source1.lo[0].lo rcvdPkFromHl:vector(packetBytes) ETV
attr interpolationmode none
attr recordingmode vector(packetBytes)
attr source packetReceivedFromUpper
attr title "packets received from higher layer, packetBytes"
vector 1 ManetprotocolsShowcaseB.source1.lo[0].lo passedUpPk:vector(packetBytes) ETV
attr interpolationmode none
attr recordingmode vector(packetBytes)
attr source packetSentToUpper
attr title "packets passed to higher layer, packetBytes"
vector 2 ManetprotocolsShowcaseB.source1.lo[0] packetDropInterfaceDown:vector(packetBytes) ETV
attr interpolationmode none
attr recordingmode vector(packetBytes)
attr source packetDropReasonIsInterfaceDown(packetDropped)
attr title "packet drops: interface down, packetBytes"
vector 3 ManetprotocolsShowcaseB.source1.lo[0] packetDropNoCarrier:vector(packetBytes) ETV
attr interpolationmode none
attr recordingmode vector(packetBytes)
attr source packetDropReasonIsNoCarrier(packetDropped)
attr title "packet drops: no carrier, packetBytes"
vector 4 ManetprotocolsShowcaseB.source1.wlan[0].mac.dcf.channelAccess.pendingQueue queueLength:vector ETV
attr autoWarmupFilter false
attr interpolationmode sample-hold
attr recordingmode vector
attr source "warmup(atomic(constant0(packetPushEnded) + count(packetPushStarted) - count(packetPulled) - count(packetRemoved) - count(packetDropped)))"
attr title "queue length"
attr unit pk
vector 5 ManetprotocolsShowcaseB.source1.wlan[0].mac.dcf.channelAccess.pendingQueue queueBitLength:vector ETV
attr autoWarmupFilter false
attr interpolationmode sample-hold
attr recordingmode vector
attr source "warmup(atomic(constant0(packetPushEnded) + sum(packetLength(packetPushStarted)) - sum(packetLength(packetPulled)) - sum(packetLength(packetRemoved)) - sum(packetLength(packetDropped))))"
attr title "queue bit length"
attr unit b
vector 6 ManetprotocolsShowcaseB.source1.wlan[0].mac.dcf.channelAccess.pendingQueue queueingTime:vector ETV
attr interpolationmode none
attr recordingmode vector
attr source queueingTime(packetPulled)
attr title "queueing times"
attr unit s
vector 7 ManetprotocolsShowcaseB.source1.wlan[0].mac.dcf.channelAccess.pendingQueue incomingPacketLengths:vector ETV
attr interpolationmode none
attr recordingmode vector
attr source packetLength(packetPushStarted)
attr title "incoming packet lengths"
attr unit b
vector 8 ManetprotocolsShowcaseB.source1.wlan[0].mac.dcf.channelAccess.pendingQueue incomingDataRate:vector ETV
attr interpolationmode linear
attr recordingmode vector
attr source throughput(packetPushStarted)
attr title "incoming datarate"
attr unit bps
vector 9 ManetprotocolsShowcaseB.source1.wlan[0].mac.dcf.channelAccess.pendingQueue outgoingPacketLengths:vector ETV
attr interpolationmode none
attr recordingmode vector
attr source packetLength(packetPulled)
attr title "outgoing packet lengths"
attr unit b
vector 10 ManetprotocolsShowcaseB.source1.wlan[0].mac.dcf.channelAccess.pendingQueue outgoingDataRate:vector ETV
attr interpolationmode linear
attr recordingmode vector
attr source throughput(packetPulled)
attr title "outgoing datarate"
attr unit bps
vector 11 ManetprotocolsShowcaseB.source1.wlan[0].mac.dcf.channelAccess.pendingQueue droppedPacketLengthsQueueOverflow:vector ETV
attr interpolationmode none
attr recordingmode vector
attr source packetLength(packetDropReasonIsQueueOverflow(packetDropped))
attr title "dropped packet lengths: queue overflow"
attr unit b
vector 12 ManetprotocolsShowcaseB.source1.wlan[0].mac.dcf.channelAccess.pendingQueue flowQueueingTime:vector ETV
attr interpolationmode none
attr recordingmode vector
attr source queueingTime(demuxFlow(packetPulled))
attr title "flow queueing times"
attr unit s
vector 13 ManetprotocolsShowcaseB.source1.wlan[0].mac.dcf.channelAccess.pendingQueue flowIncomingDataRate:vector ETV
attr interpolationmode linear
attr recordingmode vector
attr source throughput(flowPacketLength(demuxFlow(packetPushStarted)))
attr title "flow specific incoming data rate"
attr unit bps
vector 14 ManetprotocolsShowcaseB.source1.wlan[0].mac.dcf.channelAccess.pendingQueue flowOutgoingDataRate:vector ETV
attr interpolationmode linear
attr recordingmode vector
attr source throughput(flowPacketLength(demuxFlow(packetPulled)))
attr title "flow specific outgoing data rate"
attr unit bps
vector 15 ManetprotocolsShowcaseB.source1.wlan[0].mac.dcf.channelAccess.inProgressFrames queueingTime:vector ETV
attr interpolationmode none
attr recordingmode vector
attr source queueingTime(packetDequeued)
attr title "queueing times"
vector 16 ManetprotocolsShowcaseB.source1.wlan[0].mac.dcf.channelAccess.inProgressFrames queueLength:vector ETV
attr autoWarmupFilter false
attr interpolationmode sample-hold
attr recordingmode vector
attr source "warmup(count(packetEnqueued) - count(packetDequeued))"
attr title "queue length"
vector 17 ManetprotocolsShowcaseB.source1.wlan[0].mac.dcf.channelAccess.contention backoffPeriodGenerated:vector ETV
attr interpolationmode none
attr recordingmode vector
attr title "backoff periods"
vector 18 ManetprotocolsShowcaseB.source1.wlan[0].mac.dcf.channelAccess.contention backoffActive:vector ETV
attr autoWarmupFilter false
attr interpolationmode sample-hold
attr recordingmode vector
attr source warmup(count(backoffStarted)-count(backoffStopped))
attr title "backoff active"
vector 19 ManetprotocolsShowcaseB.source1.wlan[0].mac.dcf.channelAccess.contention stateChanged:vector ETV
attr enum IDLE,DEFER,IFS_AND_BACKOFF
attr interpolationmode none
attr recordingmode vector
attr title "contention state changed"
attr type enum
vector 20 ManetprotocolsShowcaseB.source1.wlan[0].mac.dcf.recipientMacDataService packetDropDuplicateDetected:vector(packetBytes) ETV
attr interpolationmode none
attr recordingmode vector(packetBytes)
attr source packetDropReasonIsDuplicateDetected(packetDropped)
attr title "packet drops: duplicate detected, packetBytes"
vector 21 ManetprotocolsShowcaseB.source1.wlan[0].mac.dcf.recoveryProcedure contentionWindowChanged:vector ETV
attr interpolationmode sample-hold
attr recordingmode vector
attr title "contention window"
vector 22 ManetprotocolsShowcaseB.source1.wlan[0].mac.dcf packetSentToPeer:vector(packetBytes) ETV
attr interpolationmode none
attr recordingmode vector(packetBytes)
attr title "packets sent, packetBytes"
vector 23 ManetprotocolsShowcaseB.source1.wlan[0].mac.dcf packetSentToPeerUnicast:vector(packetBytes) ETV
attr interpolationmode none
attr recordingmode vector(packetBytes)
attr source ieee80211Unicast(packetSentToPeer)
attr title "packets sent: unicast, packetBytes"
vector 24 ManetprotocolsShowcaseB.source1.wlan[0].mac.dcf packetSentToPeerMulticast:vector(packetBytes) ETV
attr interpolationmode none
attr recordingmode vector(packetBytes)
attr source ieee80211Multicast(packetSentToPeer)
attr title "packets sent: multicast, packetBytes"
vector 25 ManetprotocolsShowcaseB.source1.wlan[0].mac.dcf packetSentToPeerBroadcast:vector(packetBytes) ETV
attr interpolationmode none
attr recordingmode vector(packetBytes)
attr source ieee80211Broadcast(packetSentToPeer)
attr title "packets sent: broadcast , packetBytes"
vector 26 ManetprotocolsShowcaseB.source1.wlan[0].mac.dcf packetSentToPeerWithRetry:vector(packetBytes) ETV
attr interpolationmode none
attr recordingmode vector(packetBytes)
attr source ieee80211Retry(packetSentToPeer)
attr title "packets sent: with retry, packetBytes"
vector 27 ManetprotocolsShowcaseB.source1.wlan[0].mac.dcf packetSentToPeerWithoutRetry:vector(packetBytes) ETV
attr interpolationmode none
attr recordingmode vector(packetBytes)
attr source ieee80211NotRetry(packetSentToPeer)
attr title "packets sent: without retry, packetBytes"
vector 28 ManetprotocolsShowcaseB.source1.wlan[0].mac.dcf packetReceivedFromPeer:vector(packetBytes) ETV
attr interpolationmode none
attr recordingmode vector(packetBytes)
attr title "packets received, packetBytes"
vector 29 ManetprotocolsShowcaseB.source1.wlan[0].mac.dcf packetReceivedFromPeerUnicast:vector(packetBytes) ETV
attr interpolationmode none
attr recordingmode vector(packetBytes)
attr source ieee80211Unicast(packetReceivedFromPeer)
attr title "packets received: unicast, packetBytes"
vector 30 ManetprotocolsShowcaseB.source1.wlan[0].mac.dcf packetReceivedFromPeerMulticast:vector(packetBytes) ETV
attr interpolationmode none
attr recordingmode vector(packetBytes)
attr source ieee80211Multicast(packetReceivedFromPeer)
attr title "packets received: multicast, packetBytes"
vector 31 ManetprotocolsShowcaseB.source1.wlan[0].mac.dcf packetReceivedFromPeerBroadcast:vector(packetBytes) ETV
attr interpolationmode none
attr recordingmode vector(packetBytes)
attr source ieee80211Broadcast(packetReceivedFromPeer)
attr title "packets received: broadcast, packetBytes"
vector 32 ManetprotocolsShowcaseB.source1.wlan[0].mac.dcf packetReceivedFromPeerWithRetry:vector(packetBytes) ETV
attr interpolationmode none
attr recordingmode vector(packetBytes)
attr source ieee80211Retry(packetReceivedFromPeer)
attr title "packets received: with retry, packetBytes"
vector 33 ManetprotocolsShowcaseB.source1.wlan[0].mac.dcf packetReceivedFromPeerWithoutRetry:vector(packetBytes) ETV
attr interpolationmode none
attr recordingmode vector(packetBytes)
attr source ieee80211NotRetry(packetReceivedFromPeer)
attr title "packets received: without retry, packetBytes"
vector 34 ManetprotocolsShowcaseB.source1.wlan[0].mac.dcf packetDrop:vector(packetBytes) ETV
attr interpolationmode none
attr recordingmode vector(packetBytes)
attr source packetDropped
attr title "packet drops, packetBytes"
vector 35 ManetprotocolsShowcaseB.source1.wlan[0].mac.dcf packetDropNotAddressedToUs:vector(packetBytes) ETV
attr interpolationmode none
attr recordingmode vector(packetBytes)
attr source packetDropReasonIsNotAddressedToUs(packetDropped)
attr title "packet drops: not addressed to us, packetBytes"
vector 36 ManetprotocolsShowcaseB.source1.wlan[0].mac.dcf packetDropQueueOverflow:vector(packetBytes) ETV
attr interpolationmode none
attr recordingmode vector(packetBytes)
attr source packetDropReasonIsQueueOverflow(packetDropped)
attr title "packet drops: queue overflow, packetBytes"
vector 37 ManetprotocolsShowcaseB.source1.wlan[0].mac.dcf packetDropRetryLimitReached:vector(packetBytes) ETV
attr interpolationmode none
attr recordingmode vector(packetBytes)
attr source packetDropReasonIsRetryLimitReached(packetDropped)
attr title "packet drops: retry limit reached, packetBytes"
vector 38 ManetprotocolsShowcaseB.source1.wlan[0].mac.dcf frameSequenceActive:vector ETV
attr autoWarmupFilter false
attr interpolationmode sample-hold
attr recordingmode vector
attr source warmup(count(frameSequenceStarted)-count(frameSequenceFinished))
attr title "frame sequence active"
vector 39 ManetprotocolsShowcaseB.source1.wlan[0].mac.dcf datarateSelected:vector ETV
attr interpolationmode none
attr recordingmode vector
attr title "datarates selected"
vector 40 ManetprotocolsShowcaseB.source1.wlan[0].mac.rx nav:vector ETV
attr interpolationmode linear
attr recordingmode vector
attr source navChanged
attr title "network allocation vector"
vector 41 ManetprotocolsShowcaseB.source1.wlan[0].mac packetSentToUpper:vector(packetBytes) ETV
attr interpolationmode none
attr recordingmode vector(packetBytes)
attr title "packets sent to upper layer, packetBytes"
vector 42 ManetprotocolsShowcaseB.source1.wlan[0].mac packetSentToLower:vector(packetBytes) ETV
attr interpolationmode none
attr recordingmode vector(packetBytes)
attr title "packets sent to lower layer, packetBytes"
vector 43 ManetprotocolsShowcaseB.source1.wlan[0].mac packetReceivedFromUpper:vector(packetBytes) ETV
attr interpolationmode none
attr recordingmode vector(packetBytes)
attr title "packets received from upper layer, packetBytes"
vector 44 ManetprotocolsShowcaseB.source1.wlan[0].mac packetReceivedFromLower:vector(packetBytes) ETV
attr interpolationmode none
attr recordingmode vector(packetBytes)
attr title "packets received from lower layer, packetBytes"
vector 45 ManetprotocolsShowcaseB.source1.wlan[0].mac packetDrop:vector(packetBytes) ETV
attr interpolationmode none
attr recordingmode vector(packetBytes)
attr source packetDropped
attr title "packet drops, packetBytes"
vector 46 ManetprotocolsShowcaseB.source1.wlan[0].mac packetDropIncorrectlyReceived:vector(packetBytes) ETV
attr interpolationmode none
attr recordingmode vector(packetBytes)
attr source packetDropReasonIsIncorrectlyReceived(packetDropped)
attr title "packet drops: incorrectly received, packetBytes"
vector 47 ManetprotocolsShowcaseB.source1.wlan[0].mac packetDropNotAddressedToUs:vector(packetBytes) ETV
attr interpolationmode none
attr recordingmode vector(packetBytes)
attr source packetDropReasonIsNotAddressedToUs(packetDropped)
attr title "packet drops: not addressed to us, packetBytes"
vector 48 ManetprotocolsShowcaseB.source1.wlan[0].mac packetDropQueueOverflow:vector(packetBytes) ETV
attr interpolationmode none
attr recordingmode vector(packetBytes)
attr source packetDropReasonIsQueueOverflow(packetDropped)
attr title "packet drops: queue overflow, packetBytes"
vector 49 ManetprotocolsShowcaseB.source1.wlan[0].mac packetDropRetryLimitReached:vector(packetBytes) ETV
attr interpolationmode none
attr recordingmode vector(packetBytes)
attr source packetDropReasonIsRetryLimitReached(packetDropped)
attr title "packet drops: retry limit reached, packetBytes"
vector 50 ManetprotocolsShowcaseB.source1.wlan[0].mac packetDropDuplicateDetected:vector(packetBytes) ETV
attr interpolationmode none
attr recordingmode vector(packetBytes)
attr source packetDropReasonIsDuplicateDetected(packetDropped)
attr title "packet drops: duplicate detected, packetBytes"
vector 51 ManetprotocolsShowcaseB.source1.wlan[0].mac packetDropOther:vector(packetBytes) ETV
attr interpolationmode none
attr recordingmode vector(packetBytes)
attr source packetDropReasonIsOther(packetDropped)
attr title "packet drops: other, packetBytes"
vector 52 ManetprotocolsShowcaseB.source1.wlan[0].radio radioMode:vector ETV
attr interpolationmode sample-hold
attr recordingmode vector
attr source radioModeChanged
attr title "Radio mode"
vector 53 ManetprotocolsShowcaseB.source1.wlan[0].radio receptionState:vector ETV
attr interpolationmode sample-hold
attr recordingmode vector
attr source receptionStateChanged
attr title "Radio reception state"
vector 54 ManetprotocolsShowcaseB.source1.wlan[0].radio transmissionState:vector ETV
attr interpolationmode sample-hold
attr recordingmode vector
attr source transmissionStateChanged
attr title "Radio transmission state"
vector 55 ManetprotocolsShowcaseB.source1.wlan[0].radio radioChannel:vector ETV
attr interpolationmode sample-hold
attr recordingmode vector
attr source radioChannelChanged
attr title "Radio channel"
vector 56 ManetprotocolsShowcaseB.source1.wlan[0] packetDropInterfaceDown:vector(packetBytes) ETV
attr interpolationmode none
attr recordingmode vector(packetBytes)
attr source packetDropReasonIsInterfaceDown(packetDropped)
attr title "packet drops: interface down, packetBytes"
vector 57 ManetprotocolsShowcaseB.source1.wlan[0] packetDropNoCarrier:vector(packetBytes) ETV
attr interpolationmode none
attr recordingmode vector(packetBytes)
attr source packetDropReasonIsNoCarrier(packetDropped)
attr title "packet drops: no carrier, packetBytes"
vector 58 ManetprotocolsShowcaseB.source1.ipv4.ip packetDropAddressResolutionFailed:vector(packetBytes) ETV
attr interpolationmode none
attr recordingmode vector(packetBytes)
attr source packetDropReasonIsAddressResolutionFailed(packetDropped)
attr title "packet drop: address resolution failed, packetBytes"
vector 59 ManetprotocolsShowcaseB.source1.ipv4.ip packetDropHopLimitReached:vector(packetBytes) ETV
attr interpolationmode none
attr recordingmode vector(packetBytes)
attr source packetDropReasonIsHopLimitReached(packetDropped)
attr title "packet drop: hop limit reached, packetBytes"
vector 60 ManetprotocolsShowcaseB.source1.ipv4.ip packetDropForwardingDisabled:vector(packetBytes) ETV
attr interpolationmode none
attr recordingmode vector(packetBytes)
attr source packetDropReasonIsForwardingDisabled(packetDropped)
attr title "packet drop: forwarding disabled, packetBytes"
vector 61 ManetprotocolsShowcaseB.source1.ipv4.ip packetDropNoInterfaceFound:vector(packetBytes) ETV
attr interpolationmode none
attr recordingmode vector(packetBytes)
attr source packetDropReasonIsNoInterfaceFound(packetDropped)
attr title "packet drop: no interface found, packetBytes"
vector 62 ManetprotocolsShowcaseB.source1.ipv4.ip packetDropNoRouteFound:vector(packetBytes) ETV
attr interpolationmode none
attr recordingmode vector(packetBytes)
attr source packetDropReasonIsNoRouteFound(packetDropped)
attr title "packet drop: no route found, packetBytes"
vector 63 ManetprotocolsShowcaseB.source1.ipv4.ip packetDropUndefined:vector(packetBytes) ETV
attr interpolationmode none
attr recordingmode vector(packetBytes)
attr source packetDropReasonIsUndefined(packetDropped)
attr title "packet drop: undefined, packetBytes"
vector 64 ManetprotocolsShowcaseB.source1.udp packetSent:vector(packetBytes) ETV
attr interpolationmode none
attr recordingmode vector(packetBytes)
attr source packetSent
attr title "packets sent, packetBytes"
vector 65 ManetprotocolsShowcaseB.source1.udp packetReceived:vector(packetBytes) ETV
attr interpolationmode none
attr recordingmode vector(packetBytes)
attr source packetReceived
attr title "packets received, packetBytes"
vector 66 ManetprotocolsShowcaseB.source1.udp passedUpPk:vector(count) ETV
attr interpolationmode none
attr recordingmode vector(count)
attr source packetSentToUpper
attr title "packets passed up, count"
vector 67 ManetprotocolsShowcaseB.source1.udp droppedPkWrongPort:vector(count) ETV
attr interpolationmode none
attr recordingmode vector(count)
attr source packetDropReasonIsNoPortFound(packetDropped)
attr title "packets dropped (wrong port), count"
vector 68 ManetprotocolsShowcaseB.source1.udp droppedPkBadChecksum:vector(count) ETV
attr interpolationmode none
attr recordingmode vector(count)
attr source packetDropReasonIsIncorrectlyReceived(packetDropped)
attr title "packets dropped (checksum error), count"
vector 69 ManetprotocolsShowcaseB.source1.app[0] rtt:vector ETV
attr interpolationmode none
attr recordingmode vector
attr title "ping round-trip time"
attr unit s
vector 70 ManetprotocolsShowcaseB.source1.app[0] numLost:vector ETV
attr interpolationmode none
attr recordingmode vector
attr title "pings lost"
vector 71 ManetprotocolsShowcaseB.source1.app[0] numOutOfOrderArrivals:vector ETV
attr interpolationmode none
attr recordingmode vector
attr title "ping out-of-order arrivals"
vector 72 ManetprotocolsShowcaseB.source1.app[0] pingTxSeq:vector ETV
attr interpolationmode none
attr recordingmode vector
attr title "ping tx seq"
vector 73 ManetprotocolsShowcaseB.source1.app[0] pingRxSeq:vector ETV
attr interpolationmode none
attr recordingmode vector
attr title "ping rx seq"
vector 74 ManetprotocolsShowcaseB.source2.lo[0].lo rcvdPkFromHl:vector(packetBytes) ETV
attr interpolationmode none
attr recordingmode vector(packetBytes)
attr source packetReceivedFromUpper
attr title "packets received from higher layer, packetBytes"
vector 75 ManetprotocolsShowcaseB.source2.lo[0].lo passedUpPk:vector(packetBytes) ETV
attr interpolationmode none
attr recordingmode vector(packetBytes)
attr source packetSentToUpper
attr title "packets passed to higher layer, packetBytes"
vector 76 ManetprotocolsShowcaseB.source2.lo[0] packetDropInterfaceDown:vector(packetBytes) ETV
attr interpolationmode none
attr recordingmode vector(packetBytes)
attr source packetDropReasonIsInterfaceDown(packetDropped)
attr title "packet drops: interface down, packetBytes"
vector 77 ManetprotocolsShowcaseB.source2.lo[0] packetDropNoCarrier:vector(packetBytes) ETV
attr interpolationmode none
attr recordingmode vector(packetBytes)
attr source packetDropReasonIsNoCarrier(packetDropped)
attr title "packet drops: no carrier, packetBytes"
vector 78 ManetprotocolsShowcaseB.source2.wlan[0].mac.dcf.channelAccess.pendingQueue queueLength:vector ETV
attr autoWarmupFilter false
attr interpolationmode sample-hold
attr recordingmode vector
attr source "warmup(atomic(constant0(packetPushEnded) + count(packetPushStarted) - count(packetPulled) - count(packetRemoved) - count(packetDropped)))"
attr title "queue length"
attr unit pk
vector 79 ManetprotocolsShowcaseB.source2.wlan[0].mac.dcf.channelAccess.pendingQueue queueBitLength:vector ETV
attr autoWarmupFilter false
attr interpolationmode sample-hold
attr recordingmode vector
attr source "warmup(atomic(constant0(packetPushEnded) + sum(packetLength(packetPushStarted)) - sum(packetLength(packetPulled)) - sum(packetLength(packetRemoved)) - sum(packetLength(packetDropped))))"
attr title "queue bit length"
attr unit b
vector 80 ManetprotocolsShowcaseB.source2.wlan[0].mac.dcf.channelAccess.pendingQueue queueingTime:vector ETV
attr interpolationmode none
attr recordingmode vector
attr source queueingTime(packetPulled)
attr title "queueing times"
attr unit s
vector 81 ManetprotocolsShowcaseB.source2.wlan[0].mac.dcf.channelAccess.pendingQueue incomingPacketLengths:vector ETV
attr interpolationmode none
attr recordingmode vector
attr source packetLength(packetPushStarted)
attr title "incoming packet lengths"
attr unit b
vector 82 ManetprotocolsShowcaseB.source2.wlan[0].mac.dcf.channelAccess.pendingQueue incomingDataRate:vector ETV
attr interpolationmode linear
attr recordingmode vector
attr source throughput(packetPushStarted)
attr title "incoming datarate"
attr unit bps
vector 83 ManetprotocolsShowcaseB.source2.wlan[0].mac.dcf.channelAccess.pendingQueue outgoingPacketLengths:vector ETV
attr interpolationmode none
attr recordingmode vector
attr source packetLength(packetPulled)
attr title "outgoing packet lengths"
attr unit b
vector 84 ManetprotocolsShowcaseB.source2.wlan[0].mac.dcf.channelAccess.pendingQueue outgoingDataRate:vector ETV
attr interpolationmode linear
attr recordingmode vector
attr source throughput(packetPulled)
attr title "outgoing datarate"
attr unit bps
vector 85 ManetprotocolsShowcaseB.source2.wlan[0].mac.dcf.channelAccess.pendingQueue droppedPacketLengthsQueueOverflow:vector ETV
attr interpolationmode none
attr recordingmode vector
attr source packetLength(packetDropReasonIsQueueOverflow(packetDropped))
attr title "dropped packet lengths: queue overflow"
attr unit b
vector 86 ManetprotocolsShowcaseB.source2.wlan[0].mac.dcf.channelAccess.pendingQueue flowQueueingTime:vector ETV
attr interpolationmode none
attr recordingmode vector
attr source queueingTime(demuxFlow(packetPulled))
attr title "flow queueing times"
attr unit s
vector 87 ManetprotocolsShowcaseB.source2.wlan[0].mac.dcf.channelAccess.pendingQueue flowIncomingDataRate:vector ETV
attr interpolationmode linear
attr recordingmode vector
attr source throughput(flowPacketLength(demuxFlow(packetPushStarted)))
attr title "flow specific incoming data rate"
attr unit bps
vector 88 ManetprotocolsShowcaseB.source2.wlan[0].mac.dcf.channelAccess.pendingQueue flowOutgoingDataRate:vector ETV
attr interpolationmode linear
attr recordingmode vector
attr source throughput(flowPacketLength(demuxFlow(packetPulled)))
attr title "flow specific outgoing data rate"
attr unit bps
vector 89 ManetprotocolsShowcaseB.source2.wlan[0].mac.dcf.channelAccess.inProgressFrames queueingTime:vector ETV
attr interpolationmode none
attr recordingmode vector
attr source queueingTime(packetDequeued)
attr title "queueing times"
vector 90 ManetprotocolsShowcaseB.source2.wlan[0].mac.dcf.channelAccess.inProgressFrames queueLength:vector ETV
attr autoWarmupFilter false
attr interpolationmode sample-hold
attr recordingmode vector
attr source "warmup(count(packetEnqueued) - count(packetDequeued))"
attr title "queue length"
vector 91 ManetprotocolsShowcaseB.source2.wlan[0].mac.dcf.channelAccess.contention backoffPeriodGenerated:vector ETV
attr interpolationmode none
attr recordingmode vector
attr title "backoff periods"
vector 92 ManetprotocolsShowcaseB.source2.wlan[0].mac.dcf.channelAccess.contention backoffActive:vector ETV
attr autoWarmupFilter false
attr interpolationmode sample-hold
attr recordingmode vector
attr source warmup(count(backoffStarted)-count(backoffStopped))
attr title "backoff active"
vector 93 ManetprotocolsShowcaseB.source2.wlan[0].mac.dcf.channelAccess.contention stateChanged:vector ETV
attr enum IDLE,DEFER,IFS_AND_BACKOFF
attr interpolationmode none
attr recordingmode vector
attr title "contention state changed"
attr type enum
vector 94 ManetprotocolsShowcaseB.source2.wlan[0].mac.dcf.recipientMacDataService packetDropDuplicateDetected:vector(packetBytes) ETV
attr interpolationmode none
attr recordingmode vector(packetBytes)
attr source packetDropReasonIsDuplicateDetected(packetDropped)
attr title "packet drops: duplicate detected, packetBytes"
vector 95 ManetprotocolsShowcaseB.source2.wlan[0].mac.dcf.recoveryProcedure contentionWindowChanged:vector ETV
attr interpolationmode sample-hold
attr recordingmode vector
attr title "contention window"
vector 96 ManetprotocolsShowcaseB.source2.wlan[0].mac.dcf packetSentToPeer:vector(packetBytes) ETV
attr interpolationmode none
attr recordingmode vector(packetBytes)
attr title "packets sent, packetBytes"
vector 97 ManetprotocolsShowcaseB.source2.wlan[0].mac.dcf packetSentToPeerUnicast:vector(packetBytes) ETV
attr interpolationmode none
attr recordingmode vector(packetBytes)
attr source ieee80211Unicast(packetSentToPeer)
attr title "packets sent: unicast, packetBytes"
vector 98 ManetprotocolsShowcaseB.source2.wlan[0].mac.dcf packetSentToPeerMulticast:vector(packetBytes) ETV
attr interpolationmode none
attr recordingmode vector(packetBytes)
attr source ieee80211Multicast(packetSentToPeer)
attr title "packets sent: multicast, packetBytes"
vector 99 ManetprotocolsShowcaseB.source2.wlan[0].mac.dcf packetSentToPeerBroadcast:vector(packetBytes) ETV
attr interpolationmode none
attr recordingmode vector(packetBytes)
attr source ieee80211Broadcast(packetSentToPeer)
attr title "packets sent: broadcast , packetBytes"
vector 100 ManetprotocolsShowcaseB.source2.wlan[0].mac.dcf packetSentToPeerWithRetry:vector(packetBytes) ETV
attr interpolationmode none
attr recordingmode vector(packetBytes)
attr source ieee80211Retry(packetSentToPeer)
attr title "packets sent: with retry, packetBytes"
vector 101 ManetprotocolsShowcaseB.source2.wlan[0].mac.dcf packetSentToPeerWithoutRetry:vector(packetBytes) ETV
attr interpolationmode none
attr recordingmode vector(packetBytes)
attr source ieee80211NotRetry(packetSentToPeer)
attr title "packets sent: without retry, packetBytes"
vector 102 ManetprotocolsShowcaseB.source2.wlan[0].mac.dcf packetReceivedFromPeer:vector(packetBytes) ETV
attr interpolationmode none
attr recordingmode vector(packetBytes)
attr title "packets received, packetBytes"
vector 103 ManetprotocolsShowcaseB.source2.wlan[0].mac.dcf packetReceivedFromPeerUnicast:vector(packetBytes) ETV
attr interpolationmode none
attr recordingmode vector(packetBytes)
attr source ieee80211Unicast(packetReceivedFromPeer)
attr title "packets received: unicast, packetBytes"
vector 104 ManetprotocolsShowcaseB.source2.wlan[0].mac.dcf packetReceivedFromPeerMulticast:vector(packetBytes) ETV
attr interpolationmode none
attr recordingmode vector(packetBytes)
attr source ieee80211Multicast(packetReceivedFromPeer)
attr title "packets received: multicast, packetBytes"
vector 105 ManetprotocolsShowcaseB.source2.wlan[0].mac.dcf packetReceivedFromPeerBroadcast:vector(packetBytes) ETV
attr interpolationmode none
attr recordingmode vector(packetBytes)
attr source ieee80211Broadcast(packetReceivedFromPeer)
attr title "packets received: broadcast, packetBytes"
vector 106 ManetprotocolsShowcaseB.source2.wlan[0].mac.dcf packetReceivedFromPeerWithRetry:vector(packetBytes) ETV
attr interpolationmode none
attr recordingmode vector(packetBytes)
attr source ieee80211Retry(packetReceivedFromPeer)
attr title "packets received: with retry, packetBytes"
vector 107 ManetprotocolsShowcaseB.source2.wlan[0].mac.dcf packetReceivedFromPeerWithoutRetry:vector(packetBytes) ETV
attr interpolationmode none
attr recordingmode vector(packetBytes)
attr source ieee80211NotRetry(packetReceivedFromPeer)
attr title "packets received: without retry, packetBytes"
vector 108 ManetprotocolsShowcaseB.source2.wlan[0].mac.dcf packetDrop:vector(packetBytes) ETV
attr interpolationmode none
attr recordingmode vector(packetBytes)
attr source packetDropped
attr title "packet drops, packetBytes"
vector 109 ManetprotocolsShowcaseB.source2.wlan[0].mac.dcf packetDropNotAddressedToUs:vector(packetBytes) ETV
attr interpolationmode none
attr recordingmode vector(packetBytes)
attr source packetDropReasonIsNotAddressedToUs(packetDropped)
attr title "packet drops: not addressed to us, packetBytes"
vector 110 ManetprotocolsShowcaseB.source2.wlan[0].mac.dcf packetDropQueueOverflow:vector(packetBytes) ETV
attr interpolationmode none
attr recordingmode vector(packetBytes)
attr source packetDropReasonIsQueueOverflow(packetDropped)
attr title "packet drops: queue overflow, packetBytes"
vector 111 ManetprotocolsShowcaseB.source2.wlan[0].mac.dcf packetDropRetryLimitReached:vector(packetBytes) ETV
attr interpolationmode none
attr recordingmode vector(packetBytes)
attr source packetDropReasonIsRetryLimitReached(packetDropped)
attr title "packet drops: retry limit reached, packetBytes"
vector 112 ManetprotocolsShowcaseB.source2.wlan[0].mac.dcf frameSequenceActive:vector ETV
attr autoWarmupFilter false
attr interpolationmode sample-hold
attr recordingmode vector
attr source warmup(count(frameSequenceStarted)-count(frameSequenceFinished))
attr title "frame sequence active"
vector 113 ManetprotocolsShowcaseB.source2.wlan[0].mac.dcf datarateSelected:vector ETV
attr interpolationmode none
attr recordingmode vector
attr title "datarates selected"
vector 114 ManetprotocolsShowcaseB.source2.wlan[0].mac.rx nav:vector ETV
attr interpolationmode linear
attr recordingmode vector
attr source navChanged
attr title "network allocation vector"
vector 115 ManetprotocolsShowcaseB.source2.wlan[0].mac packetSentToUpper:vector(packetBytes) ETV
attr interpolationmode none
attr recordingmode vector(packetBytes)
attr title "packets sent to upper layer, packetBytes"
vector 116 ManetprotocolsShowcaseB.source2.wlan[0].mac packetSentToLower:vector(packetBytes) ETV
attr interpolationmode none
attr recordingmode vector(packetBytes)
attr title "packets sent to lower layer, packetBytes"
vector 117 ManetprotocolsShowcaseB.source2.wlan[0].mac packetReceivedFromUpper:vector(packetBytes) ETV
attr interpolationmode none
attr recordingmode vector(packetBytes)
attr title "packets received from upper layer, packetBytes"
vector 118 ManetprotocolsShowcaseB.source2.wlan[0].mac packetReceivedFromLower:vector(packetBytes) ETV
attr interpolationmode none
attr recordingmode vector(packetBytes)
attr title "packets received from lower layer, packetBytes"
vector 119 ManetprotocolsShowcaseB.source2.wlan[0].mac packetDrop:vector(packetBytes) ETV
attr interpolationmode none
attr recordingmode vector(packetBytes)
attr source packetDropped
attr title "packet drops, packetBytes"
vector 120 ManetprotocolsShowcaseB.source2.wlan[0].mac packetDropIncorrectlyReceived:vector(packetBytes) ETV
attr interpolationmode none
attr recordingmode vector(packetBytes)
attr source packetDropReasonIsIncorrectlyReceived(packetDropped)
attr title "packet drops: incorrectly received, packetBytes"
vector 121 ManetprotocolsShowcaseB.source2.wlan[0].mac packetDropNotAddressedToUs:vector(packetBytes) ETV
attr interpolationmode none
attr recordingmode vector(packetBytes)
attr source packetDropReasonIsNotAddressedToUs(packetDropped)
attr title "packet drops: not addressed to us, packetBytes"
vector 122 ManetprotocolsShowcaseB.source2.wlan[0].mac packetDropQueueOverflow:vector(packetBytes) ETV
attr interpolationmode none
attr recordingmode vector(packetBytes)
attr source packetDropReasonIsQueueOverflow(packetDropped)
attr title "packet drops: queue overflow, packetBytes"
vector 123 ManetprotocolsShowcaseB.source2.wlan[0].mac packetDropRetryLimitReached:vector(packetBytes) ETV
attr interpolationmode none
attr recordingmode vector(packetBytes)
attr source packetDropReasonIsRetryLimitReached(packetDropped)
attr title "packet drops: retry limit reached, packetBytes"
vector 124 ManetprotocolsShowcaseB.source2.wlan[0].mac packetDropDuplicateDetected:vector(packetBytes) ETV
attr interpolationmode none
attr recordingmode vector(packetBytes)
attr source packetDropReasonIsDuplicateDetected(packetDropped)
attr title "packet drops: duplicate detected, packetBytes"
vector 125 ManetprotocolsShowcaseB.source2.wlan[0].mac packetDropOther:vector(packetBytes) ETV
attr interpolationmode none
attr recordingmode vector(packetBytes)
attr source packetDropReasonIsOther(packetDropped)
attr title "packet drops: other, packetBytes"
vector 126 ManetprotocolsShowcaseB.source2.wlan[0].radio radioMode:vector ETV
attr interpolationmode sample-hold
attr recordingmode vector
attr source radioModeChanged
attr title "Radio mode"
vector 127 ManetprotocolsShowcaseB.source2.wlan[0].radio receptionState:vector ETV
attr interpolationmode sample-hold
attr recordingmode vector
attr source receptionStateChanged
attr title "Radio reception state"
vector 128 ManetprotocolsShowcaseB.source2.wlan[0].radio transmissionState:vector ETV
attr interpolationmode sample-hold
attr recordingmode vector
attr source transmissionStateChanged
attr title "Radio transmission state"
vector 129 ManetprotocolsShowcaseB.source2.wlan[0].radio radioChannel:vector ETV
attr interpolationmode sample-hold
attr recordingmode vector
attr source radioChannelChanged
attr title "Radio channel"
vector 130 ManetprotocolsShowcaseB.source2.wlan[0] packetDropInterfaceDown:vector(packetBytes) ETV
attr interpolationmode none
attr recordingmode vector(packetBytes)
attr source packetDropReasonIsInterfaceDown(packetDropped)
attr title "packet drops: interface down, packetBytes"
vector 131 ManetprotocolsShowcaseB.source2.wlan[0] packetDropNoCarrier:vector(packetBytes) ETV
attr interpolationmode none
attr recordingmode vector(packetBytes)
attr source packetDropReasonIsNoCarrier(packetDropped)
attr title "packet drops: no carrier, packetBytes"
vector 132 ManetprotocolsShowcaseB.source2.ipv4.ip packetDropAddressResolutionFailed:vector(packetBytes) ETV
attr interpolationmode none
attr recordingmode vector(packetBytes)
attr source packetDropReasonIsAddressResolutionFailed(packetDropped)
attr title "packet drop: address resolution failed, packetBytes"
vector 133 ManetprotocolsShowcaseB.source2.ipv4.ip packetDropHopLimitReached:vector(packetBytes) ETV
attr interpolationmode none
attr recordingmode vector(packetBytes)
attr source packetDropReasonIsHopLimitReached(packetDropped)
attr title "packet drop: hop limit reached, packetBytes"
vector 134 ManetprotocolsShowcaseB.source2.ipv4.ip packetDropForwardingDisabled:vector(packetBytes) ETV
attr interpolationmode none
attr recordingmode vector(packetBytes)
attr source packetDropReasonIsForwardingDisabled(packetDropped)
attr title "packet drop: forwarding disabled, packetBytes"
vector 135 ManetprotocolsShowcaseB.source2.ipv4.ip packetDropNoInterfaceFound:vector(packetBytes) ETV
attr interpolationmode none
attr recordingmode vector(packetBytes)
attr source packetDropReasonIsNoInterfaceFound(packetDropped)
attr title "packet drop: no interface found, packetBytes"
vector 136 ManetprotocolsShowcaseB.source2.ipv4.ip packetDropNoRouteFound:vector(packetBytes) ETV
attr interpolationmode none
attr recordingmode vector(packetBytes)
attr source packetDropReasonIsNoRouteFound(packetDropped)
attr title "packet drop: no route found, packetBytes"
vector 137 ManetprotocolsShowcaseB.source2.ipv4.ip packetDropUndefined:vector(packetBytes) ETV
attr interpolationmode none
attr recordingmode vector(packetBytes)
attr source packetDropReasonIsUndefined(packetDropped)
attr title "packet drop: undefined, packetBytes"
vector 138 ManetprotocolsShowcaseB.source2.udp packetSent:vector(packetBytes) ETV
attr interpolationmode none
attr recordingmode vector(packetBytes)
attr source packetSent
attr title "packets sent, packetBytes"
vector 139 ManetprotocolsShowcaseB.source2.udp packetReceived:vector(packetBytes) ETV
attr interpolationmode none
attr recordingmode vector(packetBytes)
attr source packetReceived
attr title "packets received, packetBytes"
vector 140 ManetprotocolsShowcaseB.source2.udp passedUpPk:vector(count) ETV
attr interpolationmode none
attr recordingmode vector(count)
attr source packetSentToUpper
attr title "packets passed up, count"
vector 141 ManetprotocolsShowcaseB.source2.udp droppedPkWrongPort:vector(count) ETV
attr interpolationmode none
attr recordingmode vector(count)
attr source packetDropReasonIsNoPortFound(packetDropped)
attr title "packets dropped (wrong port), count"
vector 142 ManetprotocolsShowcaseB.source2.udp droppedPkBadChecksum:vector(count) ETV
attr interpolationmode none
attr recordingmode vector(count)
attr source packetDropReasonIsIncorrectlyReceived(packetDropped)
attr title "packets dropped (checksum error), count"
vector 143 ManetprotocolsShowcaseB.source2.app[0] rtt:vector ETV
attr interpolationmode none
attr recordingmode vector
attr title "ping round-trip time"
attr unit s
vector 144 ManetprotocolsShowcaseB.source2.app[0] numLost:vector ETV
attr interpolationmode none
attr recordingmode vector
attr title "pings lost"
vector 145 ManetprotocolsShowcaseB.source2.app[0] numOutOfOrderArrivals:vector ETV
attr interpolationmode none
attr recordingmode vector
attr title "ping out-of-order arrivals"
vector 146 ManetprotocolsShowcaseB.source2.app[0] pingTxSeq:vector ETV
attr interpolationmode none
attr recordingmode vector
attr title "ping tx seq"
vector 147 ManetprotocolsShowcaseB.source2.app[0] pingRxSeq:vector ETV
attr interpolationmode none
attr recordingmode vector
attr title "ping rx seq"
vector 148 ManetprotocolsShowcaseB.source3.lo[0].lo rcvdPkFromHl:vector(packetBytes) ETV
attr interpolationmode none
attr recordingmode vector(packetBytes)
attr source packetReceivedFromUpper
attr title "packets received from higher layer, packetBytes"
vector 149 ManetprotocolsShowcaseB.source3.lo[0].lo passedUpPk:vector(packetBytes) ETV
attr interpolationmode none
attr recordingmode vector(packetBytes)
attr source packetSentToUpper
attr title "packets passed to higher layer, packetBytes"
vector 150 ManetprotocolsShowcaseB.source3.lo[0] packetDropInterfaceDown:vector(packetBytes) ETV
attr interpolationmode none
attr recordingmode vector(packetBytes)
attr source packetDropReasonIsInterfaceDown(packetDropped)
attr title "packet drops: interface down, packetBytes"
vector 151 ManetprotocolsShowcaseB.source3.lo[0] packetDropNoCarrier:vector(packetBytes) ETV
attr interpolationmode none
attr recordingmode vector(packetBytes)
attr source packetDropReasonIsNoCarrier(packetDropped)
attr title "packet drops: no carrier, packetBytes"
vector 152 ManetprotocolsShowcaseB.source3.wlan[0].mac.dcf.channelAccess.pendingQueue queueLength:vector ETV
attr autoWarmupFilter false
attr interpolationmode sample-hold
attr recordingmode vector
attr source "warmup(atomic(constant0(packetPushEnded) + count(packetPushStarted) - count(packetPulled) - count(packetRemoved) - count(packetDropped)))"
attr title "queue length"
attr unit pk
vector 153 ManetprotocolsShowcaseB.source3.wlan[0].mac.dcf.channelAccess.pendingQueue queueBitLength:vector ETV
attr autoWarmupFilter false
attr interpolationmode sample-hold
attr recordingmode vector
attr source "warmup(atomic(constant0(packetPushEnded) + sum(packetLength(packetPushStarted)) - sum(packetLength(packetPulled)) - sum(packetLength(packetRemoved)) - sum(packetLength(packetDropped))))"
attr title "queue bit length"
attr unit b
vector 154 ManetprotocolsShowcaseB.source3.wlan[0].mac.dcf.channelAccess.pendingQueue queueingTime:vector ETV
attr interpolationmode none
attr recordingmode vector
attr source queueingTime(packetPulled)
attr title "queueing times"
attr unit s
vector 155 ManetprotocolsShowcaseB.source3.wlan[0].mac.dcf.channelAccess.pendingQueue incomingPacketLengths:vector ETV
attr interpolationmode none
attr recordingmode vector
attr source packetLength(packetPushStarted)
attr title "incoming packet lengths"
attr unit b
vector 156 ManetprotocolsShowcaseB.source3.wlan[0].mac.dcf.channelAccess.pendingQueue incomingDataRate:vector ETV
attr interpolationmode linear
attr recordingmode vector
attr source throughput(packetPushStarted)
attr title "incoming datarate"
attr unit bps
vector 157 ManetprotocolsShowcaseB.source3.wlan[0].mac.dcf.channelAccess.pendingQueue outgoingPacketLengths:vector ETV
attr interpolationmode none
attr recordingmode vector
attr source packetLength(packetPulled)
attr title "outgoing packet lengths"
attr unit b
vector 158 ManetprotocolsShowcaseB.source3.wlan[0].mac.dcf.channelAccess.pendingQueue outgoingDataRate:vector ETV
attr interpolationmode linear
attr recordingmode vector
attr source throughput(packetPulled)
attr title "outgoing datarate"
attr unit bps
vector 159 ManetprotocolsShowcaseB.source3.wlan[0].mac.dcf.channelAccess.pendingQueue droppedPacketLengthsQueueOverflow:vector ETV
attr interpolationmode none
attr recordingmode vector
attr source packetLength(packetDropReasonIsQueueOverflow(packetDropped))
attr title "dropped packet lengths: queue overflow"
attr unit b
vector 160 ManetprotocolsShowcaseB.source3.wlan[0].mac.dcf.channelAccess.pendingQueue flowQueueingTime:vector ETV
attr interpolationmode none
attr recordingmode vector
attr source queueingTime(demuxFlow(packetPulled))
attr title "flow queueing times"
attr unit s
vector 161 ManetprotocolsShowcaseB.source3.wlan[0].mac.dcf.channelAccess.pendingQueue flowIncomingDataRate:vector ETV
attr interpolationmode linear
attr recordingmode vector
attr source throughput(flowPacketLength(demuxFlow(packetPushStarted)))
attr title "flow specific incoming data rate"
attr unit bps
vector 162 ManetprotocolsShowcaseB.source3.wlan[0].mac.dcf.channelAccess.pendingQueue flowOutgoingDataRate:vector ETV
attr interpolationmode linear
attr recordingmode vector
attr source throughput(flowPacketLength(demuxFlow(packetPulled)))
attr title "flow specific outgoing data rate"
attr unit bps
vector 163 ManetprotocolsShowcaseB.source3.wlan[0].mac.dcf.channelAccess.inProgressFrames queueingTime:vector ETV
attr interpolationmode none
attr recordingmode vector
attr source queueingTime(packetDequeued)
attr title "queueing times"
vector 164 ManetprotocolsShowcaseB.source3.wlan[0].mac.dcf.channelAccess.inProgressFrames queueLength:vector ETV
attr autoWarmupFilter false
attr interpolationmode sample-hold
attr recordingmode vector
attr source "warmup(count(packetEnqueued) - count(packetDequeued))"
attr title "queue length"
vector 165 ManetprotocolsShowcaseB.source3.wlan[0].mac.dcf.channelAccess.contention backoffPeriodGenerated:vector ETV
attr interpolationmode none
attr recordingmode vector
attr title "backoff periods"
vector 166 ManetprotocolsShowcaseB.source3.wlan[0].mac.dcf.channelAccess.contention backoffActive:vector ETV
attr autoWarmupFilter false
attr interpolationmode sample-hold
attr recordingmode vector
attr source warmup(count(backoffStarted)-count(backoffStopped))
attr title "backoff active"
vector 167 ManetprotocolsShowcaseB.source3.wlan[0].mac.dcf.channelAccess.contention stateChanged:vector ETV
attr enum IDLE,DEFER,IFS_AND_BACKOFF
attr interpolationmode none
attr recordingmode vector
attr title "contention state changed"
attr type enum
vector 168 ManetprotocolsShowcaseB.source3.wlan[0].mac.dcf.recipientMacDataService packetDropDuplicateDetected:vector(packetBytes) ETV
attr interpolationmode none
attr recordingmode vector(packetBytes)
attr source packetDropReasonIsDuplicateDetected(packetDropped)
attr title "packet drops: duplicate detected, packetBytes"
vector 169 ManetprotocolsShowcaseB.source3.wlan[0].mac.dcf.recoveryProcedure contentionWindowChanged:vector ETV
attr interpolationmode sample-hold
attr recordingmode vector
attr title "contention window"
vector 170 ManetprotocolsShowcaseB.source3.wlan[0].mac.dcf packetSentToPeer:vector(packetBytes) ETV
attr interpolationmode none
attr recordingmode vector(packetBytes)
attr title "packets sent, packetBytes"
vector 171 ManetprotocolsShowcaseB.source3.wlan[0].mac.dcf packetSentToPeerUnicast:vector(packetBytes) ETV
attr interpolationmode none
attr recordingmode vector(packetBytes)
attr source ieee80211Unicast(packetSentToPeer)
attr title "packets sent: unicast, packetBytes"
vector 172 ManetprotocolsShowcaseB.source3.wlan[0].mac.dcf packetSentToPeerMulticast:vector(packetBytes) ETV
attr interpolationmode none
attr recordingmode vector(packetBytes)
attr source ieee80211Multicast(packetSentToPeer)
attr title "packets sent: multicast, packetBytes"
vector 173 ManetprotocolsShowcaseB.source3.wlan[0].mac.dcf packetSentToPeerBroadcast:vector(packetBytes) ETV
attr interpolationmode none
attr recordingmode vector(packetBytes)
attr source ieee80211Broadcast(packetSentToPeer)
attr title "packets sent: broadcast , packetBytes"
vector 174 ManetprotocolsShowcaseB.source3.wlan[0].mac.dcf packetSentToPeerWithRetry:vector(packetBytes) ETV
attr interpolationmode none
attr recordingmode vector(packetBytes)
attr source ieee80211Retry(packetSentToPeer)
attr title "packets sent: with retry, packetBytes"
vector 175 ManetprotocolsShowcaseB.source3.wlan[0].mac.dcf packetSentToPeerWithoutRetry:vector(packetBytes) ETV
attr interpolationmode none
attr recordingmode vector(packetBytes)
attr source ieee80211NotRetry(packetSentToPeer)
attr title "packets sent: without retry, packetBytes"
vector 176 ManetprotocolsShowcaseB.source3.wlan[0].mac.dcf packetReceivedFromPeer:vector(packetBytes) ETV
attr interpolationmode none
attr recordingmode vector(packetBytes)
attr title "packets received, packetBytes"
vector 177 ManetprotocolsShowcaseB.source3.wlan[0].mac.dcf packetReceivedFromPeerUnicast:vector(packetBytes) ETV
attr interpolationmode none
attr recordingmode vector(packetBytes)
attr source ieee80211Unicast(packetReceivedFromPeer)
attr title "packets received: unicast, packetBytes"
vector 178 ManetprotocolsShowcaseB.source3.wlan[0].mac.dcf packetReceivedFromPeerMulticast:vector(packetBytes) ETV
attr interpolationmode none
attr recordingmode vector(packetBytes)
attr source ieee80211Multicast(packetReceivedFromPeer)
attr title "packets received: multicast, packetBytes"
vector 179 ManetprotocolsShowcaseB.source3.wlan[0].mac.dcf packetReceivedFromPeerBroadcast:vector(packetBytes) ETV
attr interpolationmode none
attr recordingmode vector(packetBytes)
attr source ieee80211Broadcast(packetReceivedFromPeer)
attr title "packets received: broadcast, packetBytes"
vector 180 ManetprotocolsShowcaseB.source3.wlan[0].mac.dcf packetReceivedFromPeerWithRetry:vector(packetBytes) ETV
attr interpolationmode none
attr recordingmode vector(packetBytes)
attr source ieee80211Retry(packetReceivedFromPeer)
attr title "packets received: with retry, packetBytes"
vector 181 ManetprotocolsShowcaseB.source3.wlan[0].mac.dcf packetReceivedFromPeerWithoutRetry:vector(packetBytes) ETV
attr interpolationmode none
attr recordingmode vector(packetBytes)
attr source ieee80211NotRetry(packetReceivedFromPeer)
attr title "packets received: without retry, packetBytes"
vector 182 ManetprotocolsShowcaseB.source3.wlan[0].mac.dcf packetDrop:vector(packetBytes) ETV
attr interpolationmode none
attr recordingmode vector(packetBytes)
attr source packetDropped
attr title "packet drops, packetBytes"
vector 183 ManetprotocolsShowcaseB.source3.wlan[0].mac.dcf packetDropNotAddressedToUs:vector(packetBytes) ETV
attr interpolationmode none
attr recordingmode vector(packetBytes)
attr source packetDropReasonIsNotAddressedToUs(packetDropped)
attr title "packet drops: not addressed to us, packetBytes"
vector 184 ManetprotocolsShowcaseB.source3.wlan[0].mac.dcf packetDropQueueOverflow:vector(packetBytes) ETV
attr interpolationmode none
attr recordingmode vector(packetBytes)
attr source packetDropReasonIsQueueOverflow(packetDropped)
attr title "packet drops: queue overflow, packetBytes"
vector 185 ManetprotocolsShowcaseB.source3.wlan[0].mac.dcf packetDropRetryLimitReached:vector(packetBytes) ETV
attr interpolationmode none
attr recordingmode vector(packetBytes)
attr source packetDropReasonIsRetryLimitReached(packetDropped)
attr title "packet drops: retry limit reached, packetBytes"
vector 186 ManetprotocolsShowcaseB.source3.wlan[0].mac.dcf frameSequenceActive:vector ETV
attr autoWarmupFilter false
attr interpolationmode sample-hold
attr recordingmode vector
attr source warmup(count(frameSequenceStarted)-count(frameSequenceFinished))
attr title "frame sequence active"
vector 187 ManetprotocolsShowcaseB.source3.wlan[0].mac.dcf datarateSelected:vector ETV
attr interpolationmode none
attr recordingmode vector
attr title "datarates selected"
vector 188 ManetprotocolsShowcaseB.source3.wlan[0].mac.rx nav:vector ETV
attr interpolationmode linear
attr recordingmode vector
attr source navChanged
attr title "network allocation vector"
vector 189 ManetprotocolsShowcaseB.source3.wlan[0].mac packetSentToUpper:vector(packetBytes) ETV
attr interpolationmode none
attr recordingmode vector(packetBytes)
attr title "packets sent to upper layer, packetBytes"
vector 190 ManetprotocolsShowcaseB.source3.wlan[0].mac packetSentToLower:vector(packetBytes) ETV
attr interpolationmode none
attr recordingmode vector(packetBytes)
attr title "packets sent to lower layer, packetBytes"
vector 191 ManetprotocolsShowcaseB.source3.wlan[0].mac packetReceivedFromUpper:vector(packetBytes) ETV
attr interpolationmode none
attr recordingmode vector(packetBytes)
attr title "packets received from upper layer, packetBytes"
vector 192 ManetprotocolsShowcaseB.source3.wlan[0].mac packetReceivedFromLower:vector(packetBytes) ETV
attr interpolationmode none
attr recordingmode vector(packetBytes)
attr title "packets received from lower layer, packetBytes"
vector 193 ManetprotocolsShowcaseB.source3.wlan[0].mac packetDrop:vector(packetBytes) ETV
attr interpolationmode none
attr recordingmode vector(packetBytes)
attr source packetDropped
attr title "packet drops, packetBytes"
vector 194 ManetprotocolsShowcaseB.source3.wlan[0].mac packetDropIncorrectlyReceived:vector(packetBytes) ETV
attr interpolationmode none
attr recordingmode vector(packetBytes)
attr source packetDropReasonIsIncorrectlyReceived(packetDropped)
attr title "packet drops: incorrectly received, packetBytes"
vector 195 ManetprotocolsShowcaseB.source3.wlan[0].mac packetDropNotAddressedToUs:vector(packetBytes) ETV
attr interpolationmode none
attr recordingmode vector(packetBytes)
attr source packetDropReasonIsNotAddressedToUs(packetDropped)
attr title "packet drops: not addressed to us, packetBytes"
vector 196 ManetprotocolsShowcaseB.source3.wlan[0].mac packetDropQueueOverflow:vector(packetBytes) ETV
attr interpolationmode none
attr recordingmode vector(packetBytes)
attr source packetDropReasonIsQueueOverflow(packetDropped)
attr title "packet drops: queue overflow, packetBytes"
vector 197 ManetprotocolsShowcaseB.source3.wlan[0].mac packetDropRetryLimitReached:vector(packetBytes) ETV
attr interpolationmode none
attr recordingmode vector(packetBytes)
attr source packetDropReasonIsRetryLimitReached(packetDropped)
attr title "packet drops: retry limit reached, packetBytes"
vector 198 ManetprotocolsShowcaseB.source3.wlan[0].mac packetDropDuplicateDetected:vector(packetBytes) ETV
attr interpolationmode none
attr recordingmode vector(packetBytes)
attr source packetDropReasonIsDuplicateDetected(packetDropped)
attr title "packet drops: duplicate detected, packetBytes"
vector 199 ManetprotocolsShowcaseB.source3.wlan[0].mac packetDropOther:vector(packetBytes) ETV
attr interpolationmode none
attr recordingmode vector(packetBytes)
attr source packetDropReasonIsOther(packetDropped)
attr title "packet drops: other, packetBytes"
vector 200 ManetprotocolsShowcaseB.source3.wlan[0].radio radioMode:vector ETV
attr interpolationmode sample-hold
attr recordingmode vector
attr source radioModeChanged
attr title "Radio mode"
vector 201 ManetprotocolsShowcaseB.source3.wlan[0].radio receptionState:vector ETV
attr interpolationmode sample-hold
attr recordingmode vector
attr source receptionStateChanged
attr title "Radio reception state"
vector 202 ManetprotocolsShowcaseB.source3.wlan[0].radio transmissionState:vector ETV
attr interpolationmode sample-hold
attr recordingmode vector
attr source transmissionStateChanged
attr title "Radio transmission state"
vector 203 ManetprotocolsShowcaseB.source3.wlan[0].radio radioChannel:vector ETV
attr interpolationmode sample-hold
attr recordingmode vector
attr source radioChannelChanged
attr title "Radio channel"
vector 204 ManetprotocolsShowcaseB.source3.wlan[0] packetDropInterfaceDown:vector(packetBytes) ETV
attr interpolationmode none
attr recordingmode vector(packetBytes)
attr source packetDropReasonIsInterfaceDown(packetDropped)
attr title "packet drops: interface down, packetBytes"
vector 205 ManetprotocolsShowcaseB.source3.wlan[0] packetDropNoCarrier:vector(packetBytes) ETV
attr interpolationmode none
attr recordingmode vector(packetBytes)
attr source packetDropReasonIsNoCarrier(packetDropped)
attr title "packet drops: no carrier, packetBytes"
vector 206 ManetprotocolsShowcaseB.source3.ipv4.ip packetDropAddressResolutionFailed:vector(packetBytes) ETV
attr interpolationmode none
attr recordingmode vector(packetBytes)
attr source packetDropReasonIsAddressResolutionFailed(packetDropped)
attr title "packet drop: address resolution failed, packetBytes"
vector 207 ManetprotocolsShowcaseB.source3.ipv4.ip packetDropHopLimitReached:vector(packetBytes) ETV
attr interpolationmode none
attr recordingmode vector(packetBytes)
attr source packetDropReasonIsHopLimitReached(packetDropped)
attr title "packet drop: hop limit reached, packetBytes"
vector 208 ManetprotocolsShowcaseB.source3.ipv4.ip packetDropForwardingDisabled:vector(packetBytes) ETV
attr interpolationmode none
attr recordingmode vector(packetBytes)
attr source packetDropReasonIsForwardingDisabled(packetDropped)
attr title "packet drop: forwarding disabled, packetBytes"
vector 209 ManetprotocolsShowcaseB.source3.ipv4.ip packetDropNoInterfaceFound:vector(packetBytes) ETV
attr interpolationmode none
attr recordingmode vector(packetBytes)
attr source packetDropReasonIsNoInterfaceFound(packetDropped)
attr title "packet drop: no interface found, packetBytes"
vector 210 ManetprotocolsShowcaseB.source3.ipv4.ip packetDropNoRouteFound:vector(packetBytes) ETV
attr interpolationmode none
attr recordingmode vector(packetBytes)
attr source packetDropReasonIsNoRouteFound(packetDropped)
attr title "packet drop: no route found, packetBytes"
vector 211 ManetprotocolsShowcaseB.source3.ipv4.ip packetDropUndefined:vector(packetBytes) ETV
attr interpolationmode none
attr recordingmode vector(packetBytes)
attr source packetDropReasonIsUndefined(packetDropped)
attr title "packet drop: undefined, packetBytes"
vector 212 ManetprotocolsShowcaseB.source3.udp packetSent:vector(packetBytes) ETV
attr interpolationmode none
attr recordingmode vector(packetBytes)
attr source packetSent
attr title "packets sent, packetBytes"
vector 213 ManetprotocolsShowcaseB.source3.udp packetReceived:vector(packetBytes) ETV
attr interpolationmode none
attr recordingmode vector(packetBytes)
attr source packetReceived
attr title "packets received, packetBytes"
vector 214 ManetprotocolsShowcaseB.source3.udp passedUpPk:vector(count) ETV
attr interpolationmode none
attr recordingmode vector(count)
attr source packetSentToUpper
attr title "packets passed up, count"
vector 215 ManetprotocolsShowcaseB.source3.udp droppedPkWrongPort:vector(count) ETV
attr interpolationmode none
attr recordingmode vector(count)
attr source packetDropReasonIsNoPortFound(packetDropped)
attr title "packets dropped (wrong port), count"
vector 216 ManetprotocolsShowcaseB.source3.udp droppedPkBadChecksum:vector(count) ETV
attr interpolationmode none
attr recordingmode vector(count)
attr source packetDropReasonIsIncorrectlyReceived(packetDropped)
attr title "packets dropped (checksum error), count"
vector 217 ManetprotocolsShowcaseB.source3.app[0] rtt:vector ETV
attr interpolationmode none
attr recordingmode vector
attr title "ping round-trip time"
attr unit s
vector 218 ManetprotocolsShowcaseB.source3.app[0] numLost:vector ETV
attr interpolationmode none
attr recordingmode vector
attr title "pings lost"
vector 219 ManetprotocolsShowcaseB.source3.app[0] numOutOfOrderArrivals:vector ETV
attr interpolationmode none
attr recordingmode vector
attr title "ping out-of-order arrivals"
vector 220 ManetprotocolsShowcaseB.source3.app[0] pingTxSeq:vector ETV
attr interpolationmode none
attr recordingmode vector
attr title "ping tx seq"
vector 221 ManetprotocolsShowcaseB.source3.app[0] pingRxSeq:vector ETV
attr interpolationmode none
attr recordingmode vector
attr title "ping rx seq"
vector 222 ManetprotocolsShowcaseB.source4.lo[0].lo rcvdPkFromHl:vector(packetBytes) ETV
attr interpolationmode none
attr recordingmode vector(packetBytes)
attr source packetReceivedFromUpper
attr title "packets received from higher layer, packetBytes"
vector 223 ManetprotocolsShowcaseB.source4.lo[0].lo passedUpPk:vector(packetBytes) ETV
attr interpolationmode none
attr recordingmode vector(packetBytes)
attr source packetSentToUpper
attr title "packets passed to higher layer, packetBytes"
vector 224 ManetprotocolsShowcaseB.source4.lo[0] packetDropInterfaceDown:vector(packetBytes) ETV
attr interpolationmode none
attr recordingmode vector(packetBytes)
attr source packetDropReasonIsInterfaceDown(packetDropped)
attr title "packet drops: interface down, packetBytes"
vector 225 ManetprotocolsShowcaseB.source4.lo[0] packetDropNoCarrier:vector(packetBytes) ETV
attr interpolationmode none
attr recordingmode vector(packetBytes)
attr source packetDropReasonIsNoCarrier(packetDropped)
attr title "packet drops: no carrier, packetBytes"
vector 226 ManetprotocolsShowcaseB.source4.wlan[0].mac.dcf.channelAccess.pendingQueue queueLength:vector ETV
attr autoWarmupFilter false
attr interpolationmode sample-hold
attr recordingmode vector
attr source "warmup(atomic(constant0(packetPushEnded) + count(packetPushStarted) - count(packetPulled) - count(packetRemoved) - count(packetDropped)))"
attr title "queue length"
attr unit pk
vector 227 ManetprotocolsShowcaseB.source4.wlan[0].mac.dcf.channelAccess.pendingQueue queueBitLength:vector ETV
attr autoWarmupFilter false
attr interpolationmode sample-hold
attr recordingmode vector
attr source "warmup(atomic(constant0(packetPushEnded) + sum(packetLength(packetPushStarted)) - sum(packetLength(packetPulled)) - sum(packetLength(packetRemoved)) - sum(packetLength(packetDropped))))"
attr title "queue bit length"
attr unit b
vector 228 ManetprotocolsShowcaseB.source4.wlan[0].mac.dcf.channelAccess.pendingQueue queueingTime:vector ETV
attr interpolationmode none
attr recordingmode vector
attr source queueingTime(packetPulled)
attr title "queueing times"
attr unit s
vector 229 ManetprotocolsShowcaseB.source4.wlan[0].mac.dcf.channelAccess.pendingQueue incomingPacketLengths:vector ETV
attr interpolationmode none
attr recordingmode vector
attr source packetLength(packetPushStarted)
attr title "incoming packet lengths"
attr unit b
vector 230 ManetprotocolsShowcaseB.source4.wlan[0].mac.dcf.channelAccess.pendingQueue incomingDataRate:vector ETV
attr interpolationmode linear
attr recordingmode vector
attr source throughput(packetPushStarted)
attr title "incoming datarate"
attr unit bps
vector 231 ManetprotocolsShowcaseB.source4.wlan[0].mac.dcf.channelAccess.pendingQueue outgoingPacketLengths:vector ETV
attr interpolationmode none
attr recordingmode vector
attr source packetLength(packetPulled)
attr title "outgoing packet lengths"
attr unit b
vector 232 ManetprotocolsShowcaseB.source4.wlan[0].mac.dcf.channelAccess.pendingQueue outgoingDataRate:vector ETV
attr interpolationmode linear
attr recordingmode vector
attr source throughput(packetPulled)
attr title "outgoing datarate"
attr unit bps
vector 233 ManetprotocolsShowcaseB.source4.wlan[0].mac.dcf.channelAccess.pendingQueue droppedPacketLengthsQueueOverflow:vector ETV
attr interpolationmode none
attr recordingmode vector
attr source packetLength(packetDropReasonIsQueueOverflow(packetDropped))
attr title "dropped packet lengths: queue overflow"
attr unit b
vector 234 ManetprotocolsShowcaseB.source4.wlan[0].mac.dcf.channelAccess.pendingQueue flowQueueingTime:vector ETV
attr interpolationmode none
attr recordingmode vector
attr source queueingTime(demuxFlow(packetPulled))
attr title "flow queueing times"
attr unit s
vector 235 ManetprotocolsShowcaseB.source4.wlan[0].mac.dcf.channelAccess.pendingQueue flowIncomingDataRate:vector ETV
attr interpolationmode linear
attr recordingmode vector
attr source throughput(flowPacketLength(demuxFlow(packetPushStarted)))
attr title "flow specific incoming data rate"
attr unit bps
vector 236 ManetprotocolsShowcaseB.source4.wlan[0].mac.dcf.channelAccess.pendingQueue flowOutgoingDataRate:vector ETV
attr interpolationmode linear
attr recordingmode vector
attr source throughput(flowPacketLength(demuxFlow(packetPulled)))
attr title "flow specific outgoing data rate"
attr unit bps
vector 237 ManetprotocolsShowcaseB.source4.wlan[0].mac.dcf.channelAccess.inProgressFrames queueingTime:vector ETV
attr interpolationmode none
attr recordingmode vector
attr source queueingTime(packetDequeued)
attr title "queueing times"
vector 238 ManetprotocolsShowcaseB.source4.wlan[0].mac.dcf.channelAccess.inProgressFrames queueLength:vector ETV
attr autoWarmupFilter false
attr interpolationmode sample-hold
attr recordingmode vector
attr source "warmup(count(packetEnqueued) - count(packetDequeued))"
attr title "queue length"
vector 239 ManetprotocolsShowcaseB.source4.wlan[0].mac.dcf.channelAccess.contention backoffPeriodGenerated:vector ETV
attr interpolationmode none
attr recordingmode vector
attr title "backoff periods"
vector 240 ManetprotocolsShowcaseB.source4.wlan[0].mac.dcf.channelAccess.contention backoffActive:vector ETV
attr autoWarmupFilter false
attr interpolationmode sample-hold
attr recordingmode vector
attr source warmup(count(backoffStarted)-count(backoffStopped))
attr title "backoff active"
vector 241 ManetprotocolsShowcaseB.source4.wlan[0].mac.dcf.channelAccess.contention stateChanged:vector ETV
attr enum IDLE,DEFER,IFS_AND_BACKOFF
attr interpolationmode none
attr recordingmode vector
attr title "contention state changed"
attr type enum
vector 242 ManetprotocolsShowcaseB.source4.wlan[0].mac.dcf.recipientMacDataService packetDropDuplicateDetected:vector(packetBytes) ETV
attr interpolationmode none
attr recordingmode vector(packetBytes)
attr source packetDropReasonIsDuplicateDetected(packetDropped)
attr title "packet drops: duplicate detected, packetBytes"
vector 243 ManetprotocolsShowcaseB.source4.wlan[0].mac.dcf.recoveryProcedure contentionWindowChanged:vector ETV
attr interpolationmode sample-hold
attr recordingmode vector
attr title "contention window"
vector 244 ManetprotocolsShowcaseB.source4.wlan[0].mac.dcf packetSentToPeer:vector(packetBytes) ETV
attr interpolationmode none
attr recordingmode vector(packetBytes)
attr title "packets sent, packetBytes"
vector 245 ManetprotocolsShowcaseB.source4.wlan[0].mac.dcf packetSentToPeerUnicast:vector(packetBytes) ETV
attr interpolationmode none
attr recordingmode vector(packetBytes)
attr source ieee80211Unicast(packetSentToPeer)
attr title "packets sent: unicast, packetBytes"
vector 246 ManetprotocolsShowcaseB.source4.wlan[0].mac.dcf packetSentToPeerMulticast:vector(packetBytes) ETV
attr interpolationmode none
attr recordingmode vector(packetBytes)
attr source ieee80211Multicast(packetSentToPeer)
attr title "packets sent: multicast, packetBytes"
vector 247 ManetprotocolsShowcaseB.source4.wlan[0].mac.dcf packetSentToPeerBroadcast:vector(packetBytes) ETV
attr interpolationmode none
attr recordingmode vector(packetBytes)
attr source ieee80211Broadcast(packetSentToPeer)
attr title "packets sent: broadcast , packetBytes"
vector 248 ManetprotocolsShowcaseB.source4.wlan[0].mac.dcf packetSentToPeerWithRetry:vector(packetBytes) ETV
attr interpolationmode none
attr recordingmode vector(packetBytes)
attr source ieee80211Retry(packetSentToPeer)
attr title "packets sent: with retry, packetBytes"
vector 249 ManetprotocolsShowcaseB.source4.wlan[0].mac.dcf packetSentToPeerWithoutRetry:vector(packetBytes) ETV
attr interpolationmode none
attr recordingmode vector(packetBytes)
attr source ieee80211NotRetry(packetSentToPeer)
attr title "packets sent: without retry, packetBytes"
vector 250 ManetprotocolsShowcaseB.source4.wlan[0].mac.dcf packetReceivedFromPeer:vector(packetBytes) ETV
attr interpolationmode none
attr recordingmode vector(packetBytes)
attr title "packets received, packetBytes"
vector 251 ManetprotocolsShowcaseB.source4.wlan[0].mac.dcf packetReceivedFromPeerUnicast:vector(packetBytes) ETV
attr interpolationmode none
attr recordingmode vector(packetBytes)
attr source ieee80211Unicast(packetReceivedFromPeer)
attr title "packets received: unicast, packetBytes"
vector 252 ManetprotocolsShowcaseB.source4.wlan[0].mac.dcf packetReceivedFromPeerMulticast:vector(packetBytes) ETV
attr interpolationmode none
attr recordingmode vector(packetBytes)
attr source ieee80211Multicast(packetReceivedFromPeer)
attr title "packets received: multicast, packetBytes"
vector 253 ManetprotocolsShowcaseB.source4.wlan[0].mac.dcf packetReceivedFromPeerBroadcast:vector(packetBytes) ETV
attr interpolationmode none
attr recordingmode vector(packetBytes)
attr source ieee80211Broadcast(packetReceivedFromPeer)
attr title "packets received: broadcast, packetBytes"
vector 254 ManetprotocolsShowcaseB.source4.wlan[0].mac.dcf packetReceivedFromPeerWithRetry:vector(packetBytes) ETV
attr interpolationmode none
attr recordingmode vector(packetBytes)
attr source ieee80211Retry(packetReceivedFromPeer)
attr title "packets received: with retry, packetBytes"
vector 255 ManetprotocolsShowcaseB.source4.wlan[0].mac.dcf packetReceivedFromPeerWithoutRetry:vector(packetBytes) ETV
attr interpolationmode none
attr recordingmode vector(packetBytes)
attr source ieee80211NotRetry(packetReceivedFromPeer)
attr title "packets received: without retry, packetBytes"
vector 256 ManetprotocolsShowcaseB.source4.wlan[0].mac.dcf packetDrop:vector(packetBytes) ETV
attr interpolationmode none
attr recordingmode vector(packetBytes)
attr source packetDropped
attr title "packet drops, packetBytes"
vector 257 ManetprotocolsShowcaseB.source4.wlan[0].mac.dcf packetDropNotAddressedToUs:vector(packetBytes) ETV
attr interpolationmode none
attr recordingmode vector(packetBytes)
attr source packetDropReasonIsNotAddressedToUs(packetDropped)
attr title "packet drops: not addressed to us, packetBytes"
vector 258 ManetprotocolsShowcaseB.source4.wlan[0].mac.dcf packetDropQueueOverflow:vector(packetBytes) ETV
attr interpolationmode none
attr recordingmode vector(packetBytes)
attr source packetDropReasonIsQueueOverflow(packetDropped)
attr title "packet drops: queue overflow, packetBytes"
vector 259 ManetprotocolsShowcaseB.source4.wlan[0].mac.dcf packetDropRetryLimitReached:vector(packetBytes) ETV
attr interpolationmode none
attr recordingmode vector(packetBytes)
attr source packetDropReasonIsRetryLimitReached(packetDropped)
attr title "packet drops: retry limit reached, packetBytes"
vector 260 ManetprotocolsShowcaseB.source4.wlan[0].mac.dcf frameSequenceActive:vector ETV
attr autoWarmupFilter false
attr interpolationmode sample-hold
attr recordingmode vector
attr source warmup(count(frameSequenceStarted)-count(frameSequenceFinished))
attr title "frame sequence active"
vector 261 ManetprotocolsShowcaseB.source4.wlan[0].mac.dcf datarateSelected:vector ETV
attr interpolationmode none
attr recordingmode vector
attr title "datarates selected"
vector 262 ManetprotocolsShowcaseB.source4.wlan[0].mac.rx nav:vector ETV
attr interpolationmode linear
attr recordingmode vector
attr source navChanged
attr title "network allocation vector"
vector 263 ManetprotocolsShowcaseB.source4.wlan[0].mac packetSentToUpper:vector(packetBytes) ETV
attr interpolationmode none
attr recordingmode vector(packetBytes)
attr title "packets sent to upper layer, packetBytes"
vector 264 ManetprotocolsShowcaseB.source4.wlan[0].mac packetSentToLower:vector(packetBytes) ETV
attr interpolationmode none
attr recordingmode vector(packetBytes)
attr title "packets sent to lower layer, packetBytes"
vector 265 ManetprotocolsShowcaseB.source4.wlan[0].mac packetReceivedFromUpper:vector(packetBytes) ETV
attr interpolationmode none
attr recordingmode vector(packetBytes)
attr title "packets received from upper layer, packetBytes"
vector 266 ManetprotocolsShowcaseB.source4.wlan[0].mac packetReceivedFromLower:vector(packetBytes) ETV
attr interpolationmode none
attr recordingmode vector(packetBytes)
attr title "packets received from lower layer, packetBytes"
vector 267 ManetprotocolsShowcaseB.source4.wlan[0].mac packetDrop:vector(packetBytes) ETV
attr interpolationmode none
attr recordingmode vector(packetBytes)
attr source packetDropped
attr title "packet drops, packetBytes"
vector 268 ManetprotocolsShowcaseB.source4.wlan[0].mac packetDropIncorrectlyReceived:vector(packetBytes) ETV
attr interpolationmode none
attr recordingmode vector(packetBytes)
attr source packetDropReasonIsIncorrectlyReceived(packetDropped)
attr title "packet drops: incorrectly received, packetBytes"
vector 269 ManetprotocolsShowcaseB.source4.wlan[0].mac packetDropNotAddressedToUs:vector(packetBytes) ETV
attr interpolationmode none
attr recordingmode vector(packetBytes)
attr source packetDropReasonIsNotAddressedToUs(packetDropped)
attr title "packet drops: not addressed to us, packetBytes"
vector 270 ManetprotocolsShowcaseB.source4.wlan[0].mac packetDropQueueOverflow:vector(packetBytes) ETV
attr interpolationmode none
attr recordingmode vector(packetBytes)
attr source packetDropReasonIsQueueOverflow(packetDropped)
attr title "packet drops: queue overflow, packetBytes"
vector 271 ManetprotocolsShowcaseB.source4.wlan[0].mac packetDropRetryLimitReached:vector(packetBytes) ETV
attr interpolationmode none
attr recordingmode vector(packetBytes)
attr source packetDropReasonIsRetryLimitReached(packetDropped)
attr title "packet drops: retry limit reached, packetBytes"
vector 272 ManetprotocolsShowcaseB.source4.wlan[0].mac packetDropDuplicateDetected:vector(packetBytes) ETV
attr interpolationmode none
attr recordingmode vector(packetBytes)
attr source packetDropReasonIsDuplicateDetected(packetDropped)
attr title "packet drops: duplicate detected, packetBytes"
vector 273 ManetprotocolsShowcaseB.source4.wlan[0].mac packetDropOther:vector(packetBytes) ETV
attr interpolationmode none
attr recordingmode vector(packetBytes)
attr source packetDropReasonIsOther(packetDropped)
attr title "packet drops: other, packetBytes"
vector 274 ManetprotocolsShowcaseB.source4.wlan[0].radio radioMode:vector ETV
attr interpolationmode sample-hold
attr recordingmode vector
attr source radioModeChanged
attr title "Radio mode"
vector 275 ManetprotocolsShowcaseB.source4.wlan[0].radio receptionState:vector ETV
attr interpolationmode sample-hold
attr recordingmode vector
attr source receptionStateChanged
attr title "Radio reception state"
vector 276 ManetprotocolsShowcaseB.source4.wlan[0].radio transmissionState:vector ETV
attr interpolationmode sample-hold
attr recordingmode vector
attr source transmissionStateChanged
attr title "Radio transmission state"
vector 277 ManetprotocolsShowcaseB.source4.wlan[0].radio radioChannel:vector ETV
attr interpolationmode sample-hold
attr recordingmode vector
attr source radioChannelChanged
attr title "Radio channel"
vector 278 ManetprotocolsShowcaseB.source4.wlan[0] packetDropInterfaceDown:vector(packetBytes) ETV
attr interpolationmode none
attr recordingmode vector(packetBytes)
attr source packetDropReasonIsInterfaceDown(packetDropped)
attr title "packet drops: interface down, packetBytes"
vector 279 ManetprotocolsShowcaseB.source4.wlan[0] packetDropNoCarrier:vector(packetBytes) ETV
attr interpolationmode none
attr recordingmode vector(packetBytes)
attr source packetDropReasonIsNoCarrier(packetDropped)
attr title "packet drops: no carrier, packetBytes"
vector 280 ManetprotocolsShowcaseB.source4.ipv4.ip packetDropAddressResolutionFailed:vector(packetBytes) ETV
attr interpolationmode none
attr recordingmode vector(packetBytes)
attr source packetDropReasonIsAddressResolutionFailed(packetDropped)
attr title "packet drop: address resolution failed, packetBytes"
vector 281 ManetprotocolsShowcaseB.source4.ipv4.ip packetDropHopLimitReached:vector(packetBytes) ETV
attr interpolationmode none
attr recordingmode vector(packetBytes)
attr source packetDropReasonIsHopLimitReached(packetDropped)
attr title "packet drop: hop limit reached, packetBytes"
vector 282 ManetprotocolsShowcaseB.source4.ipv4.ip packetDropForwardingDisabled:vector(packetBytes) ETV
attr interpolationmode none
attr recordingmode vector(packetBytes)
attr source packetDropReasonIsForwardingDisabled(packetDropped)
attr title "packet drop: forwarding disabled, packetBytes"
vector 283 ManetprotocolsShowcaseB.source4.ipv4.ip packetDropNoInterfaceFound:vector(packetBytes) ETV
attr interpolationmode none
attr recordingmode vector(packetBytes)
attr source packetDropReasonIsNoInterfaceFound(packetDropped)
attr title "packet drop: no interface found, packetBytes"
vector 284 ManetprotocolsShowcaseB.source4.ipv4.ip packetDropNoRouteFound:vector(packetBytes) ETV
attr interpolationmode none
attr recordingmode vector(packetBytes)
attr source packetDropReasonIsNoRouteFound(packetDropped)
attr title "packet drop: no route found, packetBytes"
vector 285 ManetprotocolsShowcaseB.source4.ipv4.ip packetDropUndefined:vector(packetBytes) ETV
attr interpolationmode none
attr recordingmode vector(packetBytes)
attr source packetDropReasonIsUndefined(packetDropped)
attr title "packet drop: undefined, packetBytes"
vector 286 ManetprotocolsShowcaseB.source4.udp packetSent:vector(packetBytes) ETV
attr interpolationmode none
attr recordingmode vector(packetBytes)
attr source packetSent
attr title "packets sent, packetBytes"
vector 287 ManetprotocolsShowcaseB.source4.udp packetReceived:vector(packetBytes) ETV
attr interpolationmode none
attr recordingmode vector(packetBytes)
attr source packetReceived
attr title "packets received, packetBytes"
vector 288 ManetprotocolsShowcaseB.source4.udp passedUpPk:vector(count) ETV
attr interpolationmode none
attr recordingmode vector(count)
attr source packetSentToUpper
attr title "packets passed up, count"
vector 289 ManetprotocolsShowcaseB.source4.udp droppedPkWrongPort:vector(count) ETV
attr interpolationmode none
attr recordingmode vector(count)
attr source packetDropReasonIsNoPortFound(packetDropped)
attr title "packets dropped (wrong port), count"
vector 290 ManetprotocolsShowcaseB.source4.udp droppedPkBadChecksum:vector(count) ETV
attr interpolationmode none
attr recordingmode vector(count)
attr source packetDropReasonIsIncorrectlyReceived(packetDropped)
attr title "packets dropped (checksum error), count"
vector 291 ManetprotocolsShowcaseB.source4.app[0] rtt:vector ETV
attr interpolationmode none
attr recordingmode vector
attr title "ping round-trip time"
attr unit s
vector 292 ManetprotocolsShowcaseB.source4.app[0] numLost:vector ETV
attr interpolationmode none
attr recordingmode vector
attr title "pings lost"
vector 293 ManetprotocolsShowcaseB.source4.app[0] numOutOfOrderArrivals:vector ETV
attr interpolationmode none
attr recordingmode vector
attr title "ping out-of-order arrivals"
vector 294 ManetprotocolsShowcaseB.source4.app[0] pingTxSeq:vector ETV
attr interpolationmode none
attr recordingmode vector
attr title "ping tx seq"
vector 295 ManetprotocolsShowcaseB.source4.app[0] pingRxSeq:vector ETV
attr interpolationmode none
attr recordingmode vector
attr title "ping rx seq"
vector 296 ManetprotocolsShowcaseB.source5.lo[0].lo rcvdPkFromHl:vector(packetBytes) ETV
attr interpolationmode none
attr recordingmode vector(packetBytes)
attr source packetReceivedFromUpper
[...]
21	0	0	31
28	87	0.061764255775	88
28	180	0.06282728011	88
28	290	0.063288648453	88
30	87	0.061764255775	88
30	180	0.06282728011	88
30	290	0.063288648453	88
31	87	0.061764255775	88
31	180	0.06282728011	88
31	290	0.063288648453	88
33	87	0.061764255775	88
33	180	0.06282728011	88
33	290	0.063288648453	88
38	0	0	0
38	0	0	0
41	87	0.061764255775	60
41	180	0.06282728011	60
41	290	0.063288648453	60
44	87	0.061764255775	88
44	180	0.06282728011	88
44	290	0.063288648453	88
52	0	0	0
52	0	0	0
52	0	0	2
53	0	0	1
53	55	0.061508255775	3
53	86	0.061764255775	1
53	148	0.06257128011	3
53	179	0.06282728011	1
53	258	0.063032648453	3
53	289	0.063288648453	1
55	0	0	0
65	90	0.061764255775	32
65	183	0.06282728011	32
65	293	0.063288648453	32
66	0	0	0
66	90	0.061764255775	1
66	183	0.06282728011	2
66	293	0.063288648453	3
67	0	0	0
68	0	0	0
78	0	0	0
78	0	0	0
78	0	0	0
78	0	0	0
78	0	0	0
79	0	0	0
79	0	0	0
79	0	0	0
79	0	0	0
79	0	0	0
90	0	0	0
90	0	0	0
92	0	0	0
92	0	0	0
93	0	0	0
93	0	0	0
93	154	0.062572301177	0
93	154	0.062572301177	0
93	215	0.062828301177	0
93	215	0.062828301177	0
93	265	0.063033422373	0
93	265	0.063033422373	0
93	331	0.063289422373	0
93	331	0.063289422373	0
95	0	0	31
102	216	0.062828301177	88
102	332	0.063289422373	88
104	216	0.062828301177	88
104	332	0.063289422373	88
105	216	0.062828301177	88
105	332	0.063289422373	88
107	216	0.062828301177	88
107	332	0.063289422373	88
112	0	0	0
112	0	0	0
115	216	0.062828301177	60
115	332	0.063289422373	60
118	216	0.062828301177	88
118	332	0.063289422373	88
126	0	0	0
126	0	0	0
126	0	0	2
127	0	0	1
127	154	0.062572301177	3
127	215	0.062828301177	1
127	265	0.063033422373	3
127	331	0.063289422373	1
129	0	0	0
139	219	0.062828301177	32
139	335	0.063289422373	32
140	0	0	0
140	219	0.062828301177	1
140	335	0.063289422373	2
141	0	0	0
142	0	0	0
152	0	0	0
152	0	0	0
152	0	0	0
152	0	0	0
152	0	0	0
153	0	0	0
153	0	0	0
153	0	0	0
153	0	0	0
153	0	0	0
164	0	0	0
164	0	0	0
166	0	0	0
166	0	0	0
167	0	0	0
167	0	0	0
169	0	0	31
186	0	0	0
186	0	0	0
200	0	0	0
200	0	0	0
200	0	0	2
201	0	0	1
203	0	0	0
214	0	0	0
215	0	0	0
216	0	0	0
226	0	0	0
226	0	0	0
226	0	0	0
226	0	0	0
226	0	0	0
226	48	0.061507722072	1
226	50	0.061507722072	0
227	0	0	0
227	0	0	0
227	0	0	0
227	0	0	0
227	0	0	0
227	48	0.061507722072	704
227	50	0.061507722072	0
228	50	0.061507722072	0
229	48	0.061507722072	704
231	50	0.061507722072	704
237	72	0.061763722072	0.000256
238	0	0	0
238	0	0	0
238	50	0.061507722072	1
238	72	0.061763722072	0
239	48	0.061507722072	4
240	0	0	0
240	0	0	0
240	48	0.061507722072	1
240	49	0.061507722072	0
241	0	0	0
241	0	0	0
241	48	0.061507722072	0
241	48	0.061507722072	2
241	49	0.061507722072	2
241	49	0.061507722072	0
241	51	0.061507722072	0
241	51	0.061507722072	0
241	73	0.061763722072	0
241	73	0.061763722072	0
241	150	0.062571563121	0
241	150	0.062571563121	0
241	191	0.062827563121	0
241	191	0.062827563121	0
241	262	0.063033182155	0
241	262	0.063033182155	0
241	313	0.063289182155	0
241	313	0.063289182155	0
243	0	0	31
244	72	0.061763722072	88
246	72	0.061763722072	88
247	72	0.061763722072	88
249	72	0.061763722072	88
250	192	0.062827563121	88
250	314	0.063289182155	88
252	192	0.062827563121	88
252	314	0.063289182155	88
253	192	0.062827563121	88
253	314	0.063289182155	88
255	192	0.062827563121	88
255	314	0.063289182155	88
260	0	0	0
260	0	0	0
260	50	0.061507722072	1
260	72	0.061763722072	0
261	50	0.061507722072	11000000
263	192	0.062827563121	60
263	314	0.063289182155	60
264	50	0.061507722072	88
265	48	0.061507722072	60
266	192	0.062827563121	88
266	314	0.063289182155	88
274	0	0	0
274	0	0	0
274	0	0	2
274	51	0.061507722072	3
274	73	0.061763722072	2
275	0	0	1
275	51	0.061507722072	0
275	73	0.061763722072	1
275	150	0.062571563121	3
275	191	0.062827563121	1
275	262	0.063033182155	3
275	313	0.063289182155	1
276	51	0.061507722072	1
276	52	0.061507722072	2
276	72	0.061763722072	1
276	73	0.061763722072	0
277	0	0	0
286	45	0.061507722072	32
287	195	0.062827563121	32
287	317	0.063289182155	32
288	0	0	0
288	195	0.062827563121	1
288	317	0.063289182155	2
289	0	0	0
290	0	0	0
294	41	0.056712975726	0
300	0	0	0
300	0	0	0
300	0	0	0
300	0	0	0
300	0	0	0
300	251	0.063031681117	1
300	253	0.063031681117	0
301	0	0	0
301	0	0	0
301	0	0	0
301	0	0	0
301	0	0	0
301	251	0.063031681117	704
301	253	0.063031681117	0
302	253	0.063031681117	0
303	251	0.063031681117	704
305	253	0.063031681117	704
311	275	0.063287681117	0.000256
312	0	0	0
312	0	0	0
312	253	0.063031681117	1
312	275	0.063287681117	0
313	251	0.063031681117	3
314	0	0	0
314	0	0	0
314	251	0.063031681117	1
314	252	0.063031681117	0
315	0	0	0
315	0	0	0
315	60	0.06150922311	0
315	60	0.06150922311	0
315	116	0.06176522311	0
315	116	0.06176522311	0
315	153	0.062571948827	0
315	153	0.062571948827	0
315	209	0.062827948827	0
315	209	0.062827948827	0
315	251	0.063031681117	0
315	251	0.063031681117	2
315	252	0.063031681117	2
315	252	0.063031681117	0
315	254	0.063031681117	0
315	254	0.063031681117	0
315	276	0.063287681117	0
315	276	0.063287681117	0
317	0	0	31
318	275	0.063287681117	88
320	275	0.063287681117	88
321	275	0.063287681117	88
323	275	0.063287681117	88
324	117	0.06176522311	88
324	210	0.062827948827	88
326	117	0.06176522311	88
326	210	0.062827948827	88
327	117	0.06176522311	88
327	210	0.062827948827	88
329	117	0.06176522311	88
329	210	0.062827948827	88
334	0	0	0
334	0	0	0
334	253	0.063031681117	1
334	275	0.063287681117	0
335	253	0.063031681117	11000000
337	117	0.06176522311	60
337	210	0.062827948827	60
338	253	0.063031681117	88
339	251	0.063031681117	60
340	117	0.06176522311	88
340	210	0.062827948827	88
348	0	0	0
348	0	0	0
348	0	0	2
348	254	0.063031681117	3
348	276	0.063287681117	2
349	0	0	1
349	60	0.06150922311	3
349	116	0.06176522311	1
349	153	0.062571948827	3
349	209	0.062827948827	1
349	254	0.063031681117	0
349	276	0.063287681117	1
350	254	0.063031681117	1
350	255	0.063031681117	2
350	275	0.063287681117	1
350	276	0.063287681117	0
351	0	0	0
360	248	0.063031681117	32
361	120	0.06176522311	32
361	213	0.062827948827	32
362	0	0	0
362	120	0.06176522311	1
362	213	0.062827948827	2
363	0	0	0
364	0	0	0
374	0	0	0
374	0	0	0
374	0	0	0
374	0	0	0
374	0	0	0
374	142	0.062570916366	1
374	144	0.062570916366	0
375	0	0	0
375	0	0	0
375	0	0	0
375	0	0	0
375	0	0	0
375	142	0.062570916366	704
375	144	0.062570916366	0
376	144	0.062570916366	0
377	142	0.062570916366	704
379	144	0.062570916366	704
385	171	0.062826916366	0.000256
386	0	0	0
386	0	0	0
386	144	0.062570916366	1
386	171	0.062826916366	0
387	142	0.062570916366	15
388	0	0	0
388	0	0	0
388	142	0.062570916366	1
388	143	0.062570916366	0
389	0	0	0
389	0	0	0
389	56	0.06150836881	0
389	56	0.06150836881	0
389	92	0.06176436881	0
389	92	0.06176436881	0
389	142	0.062570916366	0
389	142	0.062570916366	2
389	143	0.062570916366	2
389	143	0.062570916366	0
389	145	0.062570916366	0
389	145	0.062570916366	0
389	172	0.062826916366	0
389	172	0.062826916366	0
389	259	0.063032713571	0
389	259	0.063032713571	0
389	295	0.063288713571	0
389	295	0.063288713571	0
391	0	0	31
392	171	0.062826916366	88
394	171	0.062826916366	88
395	171	0.062826916366	88
397	171	0.062826916366	88
398	93	0.06176436881	88
398	296	0.063288713571	88
400	93	0.06176436881	88
400	296	0.063288713571	88
401	93	0.06176436881	88
401	296	0.063288713571	88
403	93	0.06176436881	88
403	296	0.063288713571	88
408	0	0	0
408	0	0	0
408	144	0.062570916366	1
408	171	0.062826916366	0
409	144	0.062570916366	11000000
411	93	0.06176436881	60
411	296	0.063288713571	60
412	144	0.062570916366	88
413	142	0.062570916366	60
414	93	0.06176436881	88
414	296	0.063288713571	88
422	0	0	0
422	0	0	0
422	0	0	2
422	145	0.062570916366	3
422	172	0.062826916366	2
423	0	0	1
423	56	0.06150836881	3
423	92	0.06176436881	1
423	145	0.062570916366	0
423	172	0.062826916366	1
423	259	0.063032713571	3
423	295	0.063288713571	1
424	145	0.062570916366	1
424	146	0.062570916366	2
424	171	0.062826916366	1
424	172	0.062826916366	0
425	0	0	0
434	139	0.062570916366	32
435	96	0.06176436881	32
435	299	0.063288713571	32
436	0	0	0
436	96	0.06176436881	1
436	299	0.063288713571	2
437	0	0	0
438	0	0	0
443	0	0	0
443	0	0	0
443	0	0	0
443	0	0	0
443	0	0	0
444	0	0	0
444	0	0	0
444	0	0	0
444	0	0	0
444	0	0	0
455	0	0	0
455	0	0	0
457	0	0	0
457	0	0	0
458	0	0	0
458	0	0	0
458	61	0.061509358891	0
458	61	0.061509358891	0
458	122	0.061765358891	0
458	122	0.061765358891	0
458	152	0.062571925444	0
458	152	0.062571925444	0
458	203	0.062827925444	0
458	203	0.062827925444	0
458	256	0.063032329971	0
458	256	0.063032329971	0
458	277	0.063288329971	0
458	277	0.063288329971	0
460	0	0	31
467	123	0.061765358891	88
467	204	0.062827925444	88
467	278	0.063288329971	88
469	123	0.061765358891	88
469	204	0.062827925444	88
469	278	0.063288329971	88
470	123	0.061765358891	88
470	204	0.062827925444	88
470	278	0.063288329971	88
472	123	0.061765358891	88
472	204	0.062827925444	88
472	278	0.063288329971	88
477	0	0	0
477	0	0	0
480	123	0.061765358891	60
480	204	0.062827925444	60
480	278	0.063288329971	60
483	123	0.061765358891	88
483	204	0.062827925444	88
483	278	0.063288329971	88
491	0	0	0
491	0	0	0
491	0	0	2
492	0	0	1
492	61	0.061509358891	3
492	122	0.061765358891	1
492	152	0.062571925444	3
492	203	0.062827925444	1
492	256	0.063032329971	3
492	277	0.063288329971	1
494	0	0	0
504	126	0.061765358891	32
504	207	0.062827925444	32
504	281	0.063288329971	32
505	0	0	0
505	126	0.061765358891	1
505	207	0.062827925444	2
505	281	0.063288329971	3
506	0	0	0
507	0	0	0
512	0	0	0
512	0	0	0
512	0	0	0
512	0	0	0
512	0	0	0
513	0	0	0
513	0	0	0
513	0	0	0
513	0	0	0
513	0	0	0
524	0	0	0
524	0	0	0
526	0	0	0
526	0	0	0
527	0	0	0
527	0	0	0
527	53	0.06150811201	0
527	53	0.06150811201	0
527	74	0.06176411201	0
527	74	0.06176411201	0
527	147	0.062571175381	0
527	147	0.062571175381	0
527	173	0.062827175381	0
527	173	0.062827175381	0
527	260	0.063032862108	0
527	260	0.063032862108	0
527	301	0.063288862108	0
527	301	0.063288862108	0
529	0	0	31
536	75	0.06176411201	88
536	174	0.062827175381	88
536	302	0.063288862108	88
538	75	0.06176411201	88
538	174	0.062827175381	88
538	302	0.063288862108	88
539	75	0.06176411201	88
539	174	0.062827175381	88
539	302	0.063288862108	88
541	75	0.06176411201	88
541	174	0.062827175381	88
541	302	0.063288862108	88
546	0	0	0
546	0	0	0
549	75	0.06176411201	60
549	174	0.062827175381	60
549	302	0.063288862108	60
552	75	0.06176411201	88
552	174	0.062827175381	88
552	302	0.063288862108	88
560	0	0	0
560	0	0	0
560	0	0	2
561	0	0	1
561	53	0.06150811201	3
561	74	0.06176411201	1
561	147	0.062571175381	3
561	173	0.062827175381	1
561	260	0.063032862108	3
561	301	0.063288862108	1
563	0	0	0
573	78	0.06176411201	32
573	177	0.062827175381	32
573	305	0.063288862108	32
574	0	0	0
574	78	0.06176411201	1
574	177	0.062827175381	2
574	305	0.063288862108	3
575	0	0	0
576	0	0	0
581	0	0	0
581	0	0	0
581	0	0	0
581	0	0	0
581	0	0	0
581	170	0.062808569051	1
582	0	0	0
582	0	0	0
582	0	0	0
582	0	0	0
582	0	0	0
582	170	0.062808569051	704
584	170	0.062808569051	704
593	0	0	0
593	0	0	0
594	170	0.062808569051	20
595	0	0	0
595	0	0	0
595	185	0.062827462005	1
595	264	0.063033253655	0
595	325	0.063289253655	1
596	0	0	0
596	0	0	0
596	54	0.061508185258	0
596	54	0.061508185258	0
596	80	0.061764185258	0
596	80	0.061764185258	0
596	149	0.062571462005	0
596	149	0.062571462005	0
596	170	0.062808569051	0
596	170	0.062808569051	1
596	185	0.062827462005	1
596	185	0.062827462005	2
596	264	0.063033253655	2
596	264	0.063033253655	1
596	325	0.063289253655	1
596	325	0.063289253655	2
598	0	0	31
605	81	0.061764185258	88
605	186	0.062827462005	88
605	326	0.063289253655	88
607	81	0.061764185258	88
607	186	0.062827462005	88
607	326	0.063289253655	88
608	81	0.061764185258	88
608	186	0.062827462005	88
608	326	0.063289253655	88
610	81	0.061764185258	88
610	186	0.062827462005	88
610	326	0.063289253655	88
615	0	0	0
615	0	0	0
618	81	0.061764185258	60
618	186	0.062827462005	60
618	326	0.063289253655	60
620	170	0.062808569051	60
621	81	0.061764185258	88
621	186	0.062827462005	88
621	326	0.063289253655	88
629	0	0	0
629	0	0	0
629	0	0	2
630	0	0	1
630	54	0.061508185258	3
630	80	0.061764185258	1
630	149	0.062571462005	3
630	185	0.062827462005	1
630	264	0.063033253655	3
630	325	0.063289253655	1
632	0	0	0
641	167	0.062808569051	32
642	84	0.061764185258	32
642	189	0.062827462005	32
642	329	0.063289253655	32
643	0	0	0
643	84	0.061764185258	1
643	189	0.062827462005	2
643	329	0.063289253655	3
644	0	0	0
645	0	0	0
650	0	0	0
650	0	0	0
650	0	0	0
650	0	0	0
650	0	0	0
651	0	0	0
651	0	0	0
651	0	0	0
651	0	0	0
651	0	0	0
662	0	0	0
662	0	0	0
664	0	0	0
664	0	0	0
665	0	0	0
665	0	0	0
665	263	0.063033194086	0
665	263	0.063033194086	0
665	319	0.063289194086	0
665	319	0.063289194086	0
667	0	0	31
674	320	0.063289194086	88
676	320	0.063289194086	88
677	320	0.063289194086	88
679	320	0.063289194086	88
684	0	0	0
684	0	0	0
687	320	0.063289194086	60
690	320	0.063289194086	88
698	0	0	0
698	0	0	0
698	0	0	2
699	0	0	1
699	263	0.063033194086	3
699	319	0.063289194086	1
701	0	0	0
711	323	0.063289194086	32
712	0	0	0
712	323	0.063289194086	1
713	0	0	0
714	0	0	0
719	0	0	0
719	0	0	0
719	0	0	0
719	0	0	0
719	0	0	0
720	0	0	0
720	0	0	0
720	0	0	0
720	0	0	0
720	0	0	0
731	0	0	0
731	0	0	0
733	0	0	0
733	0	0	0
734	0	0	0
734	0	0	0
734	59	0.061508990683	0
734	59	0.061508990683	0
734	110	0.061764990683	0
734	110	0.061764990683	0
734	156	0.062572445231	0
734	156	0.062572445231	0
734	227	0.062828445231	0
734	227	0.062828445231	0
736	0	0	31
743	111	0.061764990683	88
743	228	0.062828445231	88
745	111	0.061764990683	88
745	228	0.062828445231	88
746	111	0.061764990683	88
746	228	0.062828445231	88
748	111	0.061764990683	88
748	228	0.062828445231	88
753	0	0	0
753	0	0	0
756	111	0.061764990683	60
756	228	0.062828445231	60
759	111	0.061764990683	88
759	228	0.062828445231	88
767	0	0	0
767	0	0	0
767	0	0	2
768	0	0	1
768	59	0.061508990683	3
768	110	0.061764990683	1
768	156	0.062572445231	3
768	227	0.062828445231	1
770	0	0	0
780	114	0.061764990683	32
780	231	0.062828445231	32
781	0	0	0
781	114	0.061764990683	1
781	231	0.062828445231	2
782	0	0	0
783	0	0	0
788	0	0	0
788	0	0	0
788	0	0	0
788	0	0	0
788	0	0	0
789	0	0	0
789	0	0	0
789	0	0	0
789	0	0	0
789	0	0	0
800	0	0	0
800	0	0	0
802	0	0	0
802	0	0	0
803	0	0	0
803	0	0	0
803	155	0.06257241966	0
803	155	0.06257241966	0
803	221	0.06282841966	0
803	221	0.06282841966	0
803	257	0.06303254076	0
803	257	0.06303254076	0
803	283	0.06328854076	0
803	283	0.06328854076	0
805	0	0	31
812	222	0.06282841966	88
812	284	0.06328854076	88
814	222	0.06282841966	88
814	284	0.06328854076	88
815	222	0.06282841966	88
815	284	0.06328854076	88
817	222	0.06282841966	88
817	284	0.06328854076	88
822	0	0	0
822	0	0	0
825	222	0.06282841966	60
825	284	0.06328854076	60
828	222	0.06282841966	88
828	284	0.06328854076	88
836	0	0	0
836	0	0	0
836	0	0	2
837	0	0	1
837	155	0.06257241966	3
837	221	0.06282841966	1
837	257	0.06303254076	3
837	283	0.06328854076	1
839	0	0	0
849	225	0.06282841966	32
849	287	0.06328854076	32
850	0	0	0
850	225	0.06282841966	1
850	287	0.06328854076	2
851	0	0	0
852	0	0	0
857	0	0	0
857	0	0	0
857	0	0	0
857	0	0	0
857	0	0	0
858	0	0	0
858	0	0	0
858	0	0	0
858	0	0	0
858	0	0	0
869	0	0	0
869	0	0	0
871	0	0	0
871	0	0	0
872	0	0	0
872	0	0	0
872	57	0.06150859006	0
872	57	0.06150859006	0
872	98	0.06176459006	0
872	98	0.06176459006	0
872	151	0.062571770352	0
872	151	0.062571770352	0
872	197	0.062827770352	0
872	197	0.062827770352	0
874	0	0	31
881	99	0.06176459006	88
881	198	0.062827770352	88
883	99	0.06176459006	88
883	198	0.062827770352	88
884	99	0.06176459006	88
884	198	0.062827770352	88
886	99	0.06176459006	88
886	198	0.062827770352	88
891	0	0	0
891	0	0	0
894	99	0.06176459006	60
894	198	0.062827770352	60
897	99	0.06176459006	88
897	198	0.062827770352	88
905	0	0	0
905	0	0	0
905	0	0	2
906	0	0	1
906	57	0.06150859006	3
906	98	0.06176459006	1
906	151	0.062571770352	3
906	197	0.062827770352	1
908	0	0	0
918	102	0.06176459006	32
918	201	0.062827770352	32
919	0	0	0
919	102	0.06176459006	1
919	201	0.062827770352	2
920	0	0	0
921	0	0	0
926	0	0	0
926	0	0	0
926	0	0	0
926	0	0	0
926	0	0	0
927	0	0	0
927	0	0	0
927	0	0	0
927	0	0	0
927	0	0	0
938	0	0	0
938	0	0	0
940	0	0	0
940	0	0	0
941	0	0	0
941	0	0	0
941	58	0.061508862477	0
941	58	0.061508862477	0
941	104	0.061764862477	0
941	104	0.061764862477	0
941	157	0.062572701606	0
941	157	0.062572701606	0
941	233	0.062828701606	0
941	233	0.062828701606	0
943	0	0	31
950	105	0.061764862477	88
950	234	0.062828701606	88
952	105	0.061764862477	88
952	234	0.062828701606	88
953	105	0.061764862477	88
953	234	0.062828701606	88
955	105	0.061764862477	88
955	234	0.062828701606	88
960	0	0	0
960	0	0	0
963	105	0.061764862477	60
963	234	0.062828701606	60
966	105	0.061764862477	88
966	234	0.062828701606	88
974	0	0	0
974	0	0	0
974	0	0	2
975	0	0	1
975	58	0.061508862477	3
975	104	0.061764862477	1
975	157	0.062572701606	3
975	233	0.062828701606	1
977	0	0	0
987	108	0.061764862477	32
987	237	0.062828701606	32
988	0	0	0
988	108	0.061764862477	1
988	237	0.062828701606	2
989	0	0	0
990	0	0	0
995	0	0	0
995	0	0	0
995	0	0	0
995	0	0	0
995	0	0	0
996	0	0	0
996	0	0	0
996	0	0	0
996	0	0	0
996	0	0	0
1007	0	0	0
1007	0	0	0
1009	0	0	0
1009	0	0	0
1010	0	0	0
1010	0	0	0
1010	261	0.063032935289	0
1010	261	0.063032935289	0
1010	307	0.063288935289	0
1010	307	0.063288935289	0
1012	0	0	31
1019	308	0.063288935289	88
1021	308	0.063288935289	88
1022	308	0.063288935289	88
1024	308	0.063288935289	88
1029	0	0	0
1029	0	0	0
1032	308	0.063288935289	60
1035	308	0.063288935289	88
1043	0	0	0
1043	0	0	0
1043	0	0	2
1044	0	0	1
1044	261	0.063032935289	3
1044	307	0.063288935289	1
1046	0	0	0
1056	311	0.063288935289	32
1057	0	0	0
1057	311	0.063288935289	1
1058	0	0	0
1059	0	0	0
1064	0	0	0
1064	0	0	0
1064	0	0	0
1064	0	0	0
1064	0	0	0
1065	0	0	0
1065	0	0	0
1065	0	0	0
1065	0	0	0
1065	0	0	0
1076	0	0	0
1076	0	0	0
1078	0	0	0
1078	0	0	0
1079	0	0	0
1079	0	0	0
1081	0	0	31
1098	0	0	0
1098	0	0	0
1112	0	0	0
1112	0	0	0
1112	0	0	2
1113	0	0	1
1115	0	0	0
1126	0	0	0
1127	0	0	0
1128	0	0	0
1133	0	0	0
1133	0	0	0
1133	0	0	0
1133	0	0	0
1133	0	0	0
1134	0	0	0
1134	0	0	0
1134	0	0	0
1134	0	0	0
1134	0	0	0
1145	0	0	0
1145	0	0	0
1147	0	0	0
1147	0	0	0
1148	0	0	0
1148	0	0	0
1150	0	0	31
1167	0	0	0
1167	0	0	0
1181	0	0	0
1181	0	0	0
1181	0	0	2
1182	0	0	1
1184	0	0	0
1195	0	0	0
1196	0	0	0
1197	0	0	0
1202	0	0	0
1202	0	0	0
1202	0	0	0
1202	0	0	0
1202	0	0	0
1203	0	0	0
1203	0	0	0
1203	0	0	0
1203	0	0	0
1203	0	0	0
1214	0	0	0
1214	0	0	0
1216	0	0	0
1216	0	0	0
1217	0	0	0
1217	0	0	0
1219	0	0	31
1236	0	0	0
1236	0	0	0
1250	0	0	0
1250	0	0	0
1250	0	0	2
1251	0	0	1
1253	0	0	0
1264	0	0	0
1265	0	0	0
1266	0	0	0
1271	0	0	0
1271	0	0	0
1271	0	0	0
1271	0	0	0
1271	0	0	0
1272	0	0	0
1272	0	0	0
1272	0	0	0
1272	0	0	0
1272	0	0	0
1283	0	0	0
1283	0	0	0
1285	0	0	0
1285	0	0	0
1286	0	0	0
1286	0	0	0
1288	0	0	31
1305	0	0	0
1305	0	0	0
1319	0	0	0
1319	0	0	0
1319	0	0	2
1320	0	0	1
1322	0	0	0
1333	0	0	0
1334	0	0	0
1335	0	0	0
1340	0	0	0
1340	0	0	0
1340	0	0	0
1340	0	0	0
1340	0	0	0
1341	0	0	0
1341	0	0	0
1341	0	0	0
1341	0	0	0
1341	0	0	0
1352	0	0	0
1352	0	0	0
1354	0	0	0
1354	0	0	0
1355	0	0	0
1355	0	0	0
1357	0	0	31
1374	0	0	0
1374	0	0	0
1388	0	0	0
1388	0	0	0
1388	0	0	2
1389	0	0	1
1391	0	0	0
1402	0	0	0
1403	0	0	0
1404	0	0	0
8	338	0.063290036447	0
10	338	0.063290036447	0
82	338	0.063290036447	0
84	338	0.063290036447	0
156	338	0.063290036447	0
158	338	0.063290036447	0
230	338	0.063290036447	11123.393815542
232	338	0.063290036447	11123.393815542
304	338	0.063290036447	11123.393815542
306	338	0.063290036447	11123.393815542
378	338	0.063290036447	11123.393815542
380	338	0.063290036447	11123.393815542
447	338	0.063290036447	0
449	338	0.063290036447	0
516	338	0.063290036447	0
518	338	0.063290036447	0
585	338	0.063290036447	11123.393815542
587	338	0.063290036447	0
654	338	0.063290036447	0
656	338	0.063290036447	0
723	338	0.063290036447	0
725	338	0.063290036447	0
792	338	0.063290036447	0
794	338	0.063290036447	0
861	338	0.063290036447	0
863	338	0.063290036447	0
930	338	0.063290036447	0
932	338	0.063290036447	0
999	338	0.063290036447	0
1001	338	0.063290036447	0
1068	338	0.063290036447	0
1070	338	0.063290036447	0
1137	338	0.063290036447	0
1139	338	0.063290036447	0
1206	338	0.063290036447	0
1208	338	0.063290036447	0
1275	338	0.063290036447	0
1277	338	0.063290036447	0
1344	338	0.063290036447	0
1346	338	0.063290036447	0

