version 3
run Aodv-0-20241112-11:49:43-16948
attr configname Aodv
attr datetime 20241112-11:49:43
attr datetimef 20241112-114943
attr experiment Aodv
attr inifile omnetpp.ini
attr iterationvars ""
attr iterationvarsd ""
attr iterationvarsf ""
attr measurement ""
attr network manet2.ManetprotocolsShowcaseB
attr processid 16948
attr repetition 0
attr replication #0
attr resultdir results
attr runnumber 0
attr seedset 0
config image-path ../../inet4.5/images
config extends MobileNodesBase
config sim-time-limit 1000s
config *.*.routingApp.typename Aodv
config *.*.routingApp.activeRouteTimeout 1s
config *.*.routingApp.deletePeriod 0.5s
config *.visualizer.*.routingTableVisualizer[0].displayRoutingTables true
config *.visualizer.*.routingTableVisualizer[0].destinationFilter "\"destination\""
config network manet2.ManetprotocolsShowcaseB
config **.transmitter.power 1mW
config *.node*.mobility.typename LinearMobility
config *.node*.mobility.initialMovementHeading uniform(0deg,360deg)
config *.node*.mobility.speed 2mps
config **.constraintAreaMaxX 2000m
config **.constraintAreaMaxY 2000m
config **.constraintAreaMinX 0m
config **.constraintAreaMinY 0m
config *.visualizer.*.routingTableVisualizer[0].displayLabels false
config *.visualizer.*.routingTableVisualizer[0].displayRoutesIndividually false
config *.visualizer.*.routingTableVisualizer[0].lineShift 0
config *.visualizer.*.networkRouteVisualizer[0].displayRoutes true
config *.visualizer.*.networkRouteVisualizer[0].packetFilter "\"*ping*\""
config *.visualizer.*.interfaceTableVisualizer[0].displayInterfaceTables true
config *.visualizer.*.interfaceTableVisualizer[0].format "\"%a/%l\""
config *.source.numApps 1
config *.source.app[0].typename PingApp
config *.source.app[0].destAddr "\"destination\""
config *.source.app[0].printPing true
config *.visualizer.*.numDataLinkVisualizers 5
config *.visualizer.*.dataLinkVisualizer[*].activityLevel "\"peer\""
config *.visualizer.*.dataLinkVisualizer[*].displayLinks true
config *.visualizer.*.dataLinkVisualizer[0].packetFilter "\"aodv::Rreq or GPSRBeacon\""
config *.visualizer.*.dataLinkVisualizer[1].packetFilter "\"ping* or UDP*\""
config *.visualizer.*.dataLinkVisualizer[1].*Color "\"blue\""
config *.visualizer.*.dataLinkVisualizer[2].packetFilter "\"aodv::Rrep\""
config *.visualizer.*.dataLinkVisualizer[2].*Color "\"darkslategray\""
config *.visualizer.*.dataLinkVisualizer[3].packetFilter "\"aodv::Rerr\""
config *.visualizer.*.dataLinkVisualizer[3].*Color "\"red\""
config *.visualizer.*.dataLinkVisualizer[4].packetFilter "\"Hello\""
config *.visualizer.*.dataLinkVisualizer[4].*Color "\"green\""
config **.wlan[*].bitrate 11Mbps
config *.configurator.addStaticRoutes false
config **.netmaskRoutes "\"\""
config **.arp.typename GlobalArp
config sim-time-limit 1000s

par ManetprotocolsShowcaseB.source.radioIn[0].channel typename "\"ned.IdealChannel\""
par ManetprotocolsShowcaseB.source.mobility typename "\"inet.mobility.static.StationaryMobility\""
par ManetprotocolsShowcaseB.source.mobility subjectModule "\"^\""
par ManetprotocolsShowcaseB.source.mobility coordinateSystemModule "\"\""
par ManetprotocolsShowcaseB.source.mobility displayStringTextFormat "\"p: %p\\nv: %v\""
attr mutable ""
par ManetprotocolsShowcaseB.source.mobility updateDisplayString true
par ManetprotocolsShowcaseB.source.mobility constraintAreaMinX 0m
attr unit m
par ManetprotocolsShowcaseB.source.mobility constraintAreaMinY 0m
attr unit m
par ManetprotocolsShowcaseB.source.mobility constraintAreaMinZ "-inf m"
attr unit m
par ManetprotocolsShowcaseB.source.mobility constraintAreaMaxX 2000m
attr unit m
par ManetprotocolsShowcaseB.source.mobility constraintAreaMaxY 2000m
attr unit m
par ManetprotocolsShowcaseB.source.mobility constraintAreaMaxZ "inf m"
attr unit m
par ManetprotocolsShowcaseB.source.mobility initialX 1097.63m
attr unit m
par ManetprotocolsShowcaseB.source.mobility initialY 1185.69m
attr unit m
par ManetprotocolsShowcaseB.source.mobility initialZ 0m
attr unit m
par ManetprotocolsShowcaseB.source.mobility initialLatitude "nan deg"
attr unit deg
par ManetprotocolsShowcaseB.source.mobility initialLongitude "nan deg"
attr unit deg
par ManetprotocolsShowcaseB.source.mobility initialAltitude 0m
attr unit m
par ManetprotocolsShowcaseB.source.mobility initialHeading 0deg
attr unit deg
par ManetprotocolsShowcaseB.source.mobility initialElevation 0deg
attr unit deg
par ManetprotocolsShowcaseB.source.mobility initialBank 0deg
attr unit deg
par ManetprotocolsShowcaseB.source.mobility initFromDisplayString true
par ManetprotocolsShowcaseB.source.mobility updateFromDisplayString true
par ManetprotocolsShowcaseB.source.interfaceTable typename "\"inet.networklayer.common.InterfaceTable\""
par ManetprotocolsShowcaseB.source.interfaceTable displayAddresses false
par ManetprotocolsShowcaseB.source.cb typename "\"inet.common.MessageDispatcher\""
par ManetprotocolsShowcaseB.source.cb displayStringTextFormat "\"processed %p pk (%l)\""
par ManetprotocolsShowcaseB.source.cb forwardServiceRegistration true
par ManetprotocolsShowcaseB.source.cb forwardProtocolRegistration true
par ManetprotocolsShowcaseB.source.bl typename "\"inet.common.MessageDispatcher\""
par ManetprotocolsShowcaseB.source.bl displayStringTextFormat "\"processed %p pk (%l)\""
par ManetprotocolsShowcaseB.source.bl forwardServiceRegistration true
par ManetprotocolsShowcaseB.source.bl forwardProtocolRegistration true
par ManetprotocolsShowcaseB.source.li typename "\"inet.common.MessageDispatcher\""
par ManetprotocolsShowcaseB.source.li displayStringTextFormat "\"processed %p pk (%l)\""
par ManetprotocolsShowcaseB.source.li forwardServiceRegistration true
par ManetprotocolsShowcaseB.source.li forwardProtocolRegistration true
par ManetprotocolsShowcaseB.source.lo[0].upperLayerIn.channel typename "\"ned.IdealChannel\""
par ManetprotocolsShowcaseB.source.lo[0].lo.upperLayerOut.channel typename "\"ned.IdealChannel\""
par ManetprotocolsShowcaseB.source.lo[0].lo typename "\"inet.linklayer.loopback.Loopback\""
par ManetprotocolsShowcaseB.source.lo[0].lo interfaceTableModule "\"ManetprotocolsShowcaseB.source.interfaceTable\""
par ManetprotocolsShowcaseB.source.lo[0].lo mtu 4470B
attr unit B
scalar ManetprotocolsShowcaseB.source.lo[0].lo rcvdPkFromHl:count 0
attr interpolationmode none
attr recordingmode count
attr source packetReceivedFromUpper
attr title "packets received from higher layer, count"
scalar ManetprotocolsShowcaseB.source.lo[0].lo rcvdPkFromHl:sum(packetBytes) 0
attr interpolationmode none
attr recordingmode sum(packetBytes)
attr source packetReceivedFromUpper
attr title "packets received from higher layer, sum(packetBytes)"
scalar ManetprotocolsShowcaseB.source.lo[0].lo passedUpPk:count 0
attr interpolationmode none
attr recordingmode count
attr source packetSentToUpper
attr title "packets passed to higher layer, count"
scalar ManetprotocolsShowcaseB.source.lo[0].lo passedUpPk:sum(packetBytes) 0
attr interpolationmode none
attr recordingmode sum(packetBytes)
attr source packetSentToUpper
attr title "packets passed to higher layer, sum(packetBytes)"
par ManetprotocolsShowcaseB.source.lo[0] typename "\"inet.linklayer.loopback.LoopbackInterface\""
par ManetprotocolsShowcaseB.source.lo[0] displayStringTextFormat "\"%a (%i)\\n%m\""
par ManetprotocolsShowcaseB.source.lo[0] recordPcap false
par ManetprotocolsShowcaseB.source.lo[0] numPcapRecorders 0
par ManetprotocolsShowcaseB.source.lo[0] interfaceTableModule "\"ManetprotocolsShowcaseB.source.interfaceTable\""
scalar ManetprotocolsShowcaseB.source.lo[0] packetDropInterfaceDown:count 0
attr interpolationmode none
attr recordingmode count
attr source packetDropReasonIsInterfaceDown(packetDropped)
attr title "packet drops: interface down, count"
scalar ManetprotocolsShowcaseB.source.lo[0] packetDropInterfaceDown:sum(packetBytes) 0
attr interpolationmode none
attr recordingmode sum(packetBytes)
attr source packetDropReasonIsInterfaceDown(packetDropped)
attr title "packet drops: interface down, sum(packetBytes)"
scalar ManetprotocolsShowcaseB.source.lo[0] packetDropNoCarrier:count 0
attr interpolationmode none
attr recordingmode count
attr source packetDropReasonIsNoCarrier(packetDropped)
attr title "packet drops: no carrier, count"
scalar ManetprotocolsShowcaseB.source.lo[0] packetDropNoCarrier:sum(packetBytes) 0
attr interpolationmode none
attr recordingmode sum(packetBytes)
attr source packetDropReasonIsNoCarrier(packetDropped)
attr title "packet drops: no carrier, sum(packetBytes)"
par ManetprotocolsShowcaseB.source.wlan[0].radioIn.channel typename "\"ned.IdealChannel\""
par ManetprotocolsShowcaseB.source.wlan[0].llc.upperLayerOut.channel typename "\"ned.IdealChannel\""
par ManetprotocolsShowcaseB.source.wlan[0].upperLayerIn.channel typename "\"ned.IdealChannel\""
par ManetprotocolsShowcaseB.source.wlan[0].mib typename "\"inet.linklayer.ieee80211.mib.Ieee80211Mib\""
par ManetprotocolsShowcaseB.source.wlan[0].llc typename "\"inet.linklayer.ieee80211.llc.Ieee80211LlcLpd\""
par ManetprotocolsShowcaseB.source.wlan[0].llc registerProtocol false
par ManetprotocolsShowcaseB.source.wlan[0].mgmt typename "\"inet.linklayer.ieee80211.mgmt.Ieee80211MgmtAdhoc\""
par ManetprotocolsShowcaseB.source.wlan[0].mgmt mibModule "\"ManetprotocolsShowcaseB.source.wlan[0].mib\""
par ManetprotocolsShowcaseB.source.wlan[0].mgmt macModule "\"ManetprotocolsShowcaseB.source.wlan[0].mac\""
par ManetprotocolsShowcaseB.source.wlan[0].mgmt interfaceTableModule "\"ManetprotocolsShowcaseB.source.interfaceTable\""
par ManetprotocolsShowcaseB.source.wlan[0].mac.dcf.channelAccess.pendingQueue typename "\"inet.linklayer.ieee80211.mac.queue.PendingQueue\""
par ManetprotocolsShowcaseB.source.wlan[0].mac.dcf.channelAccess.pendingQueue displayStringTextFormat "\"contains %p pk (%l) pushed %u\\npulled %o removed %r dropped %d\""
par ManetprotocolsShowcaseB.source.wlan[0].mac.dcf.channelAccess.pendingQueue packetCapacity 100
par ManetprotocolsShowcaseB.source.wlan[0].mac.dcf.channelAccess.pendingQueue dataCapacity -1b
attr unit b
par ManetprotocolsShowcaseB.source.wlan[0].mac.dcf.channelAccess.pendingQueue dropperClass "\"inet::queueing::PacketAtCollectionEndDropper\""
par ManetprotocolsShowcaseB.source.wlan[0].mac.dcf.channelAccess.pendingQueue comparatorClass "\"inet::ieee80211::MgmtOverDataComparator\""
par ManetprotocolsShowcaseB.source.wlan[0].mac.dcf.channelAccess.pendingQueue bufferModule "\"\""
scalar ManetprotocolsShowcaseB.source.wlan[0].mac.dcf.channelAccess.pendingQueue queueLength:last 0
attr autoWarmupFilter false
attr interpolationmode sample-hold
attr recordingmode last
attr source "warmup(atomic(constant0(packetPushEnded) + count(packetPushStarted) - count(packetPulled) - count(packetRemoved) - count(packetDropped)))"
attr title "queue length, last"
attr unit pk
scalar ManetprotocolsShowcaseB.source.wlan[0].mac.dcf.channelAccess.pendingQueue queueLength:max 1
attr autoWarmupFilter false
attr interpolationmode sample-hold
attr recordingmode max
attr source "warmup(atomic(constant0(packetPushEnded) + count(packetPushStarted) - count(packetPulled) - count(packetRemoved) - count(packetDropped)))"
attr title "queue length, max"
attr unit pk
scalar ManetprotocolsShowcaseB.source.wlan[0].mac.dcf.channelAccess.pendingQueue queueLength:timeavg 0.00024788350389431
attr autoWarmupFilter false
attr interpolationmode sample-hold
attr recordingmode timeavg
attr source "warmup(atomic(constant0(packetPushEnded) + count(packetPushStarted) - count(packetPulled) - count(packetRemoved) - count(packetDropped)))"
attr title "queue length, timeavg"
attr unit pk
scalar ManetprotocolsShowcaseB.source.wlan[0].mac.dcf.channelAccess.pendingQueue queueBitLength:last 0
attr autoWarmupFilter false
attr interpolationmode sample-hold
attr recordingmode last
attr source "warmup(atomic(constant0(packetPushEnded) + sum(packetLength(packetPushStarted)) - sum(packetLength(packetPulled)) - sum(packetLength(packetRemoved)) - sum(packetLength(packetDropped))))"
attr title "queue bit length, last"
attr unit b
scalar ManetprotocolsShowcaseB.source.wlan[0].mac.dcf.channelAccess.pendingQueue queueBitLength:max 960
attr autoWarmupFilter false
attr interpolationmode sample-hold
attr recordingmode max
attr source "warmup(atomic(constant0(packetPushEnded) + sum(packetLength(packetPushStarted)) - sum(packetLength(packetPulled)) - sum(packetLength(packetRemoved)) - sum(packetLength(packetDropped))))"
attr title "queue bit length, max"
attr unit b
scalar ManetprotocolsShowcaseB.source.wlan[0].mac.dcf.channelAccess.pendingQueue queueBitLength:timeavg 0.23796816373854
attr autoWarmupFilter false
attr interpolationmode sample-hold
attr recordingmode timeavg
attr source "warmup(atomic(constant0(packetPushEnded) + sum(packetLength(packetPushStarted)) - sum(packetLength(packetPulled)) - sum(packetLength(packetRemoved)) - sum(packetLength(packetDropped))))"
attr title "queue bit length, timeavg"
attr unit b
statistic ManetprotocolsShowcaseB.source.wlan[0].mac.dcf.channelAccess.pendingQueue queueingTime:histogram
field count 3
field mean 0.00019433333333333
field stddev 0.00033659520693755
field min 0
field max 0.000583
field sum 0.000583
field sqrsum 3.39889e-07
attr interpolationmode none
attr recordingmode histogram
attr source queueingTime(packetPulled)
attr title "queueing times"
attr unit s
bin	-inf	0
bin	0	2
bin	1e-05	0
bin	2e-05	0
bin	3e-05	0
bin	4e-05	0
bin	5e-05	0
bin	6e-05	0
bin	7e-05	0
bin	8e-05	0
bin	9e-05	0
bin	0.0001	0
bin	0.00011	0
bin	0.00012	0
bin	0.00013	0
bin	0.00014	0
bin	0.00015	0
bin	0.00016	0
bin	0.00017	0
bin	0.00018	0
bin	0.00019	0
bin	0.0002	0
bin	0.00021	0
bin	0.00022	0
bin	0.00023	0
bin	0.00024	0
bin	0.00025	0
bin	0.00026	0
bin	0.00027	0
bin	0.00028	0
bin	0.00029	0
bin	0.0003	0
bin	0.00031	0
bin	0.00032	0
bin	0.00033	0
bin	0.00034	0
bin	0.00035	0
bin	0.00036	0
bin	0.00037	0
bin	0.00038	0
bin	0.00039	0
bin	0.0004	0
bin	0.00041	0
bin	0.00042	0
bin	0.00043	0
bin	0.00044	0
bin	0.00045	0
bin	0.00046	0
bin	0.00047	0
bin	0.00048	0
bin	0.00049	0
bin	0.0005	0
bin	0.00051	0
bin	0.00052	0
bin	0.00053	0
bin	0.00054	0
bin	0.00055	0
bin	0.00056	0
bin	0.00057	0
bin	0.00058	1
bin	0.00059	0
bin	0.0006	0
bin	0.00061	0
bin	0.00062	0
bin	0.00063	0
bin	0.00064	0
bin	0.00065	0
bin	0.00066	0
bin	0.00067	0
bin	0.00068	0
bin	0.00069	0
bin	0.0007	0
bin	0.00071	0
bin	0.00072	0
bin	0.00073	0
scalar ManetprotocolsShowcaseB.source.wlan[0].mac.dcf.channelAccess.pendingQueue outgoingPackets:count 3
attr recordingmode count
attr source packetPulled
attr title "outgoing packets, count"
attr unit pk
scalar ManetprotocolsShowcaseB.source.wlan[0].mac.dcf.channelAccess.pendingQueue outgoingPacketLengths:sum 2624
attr interpolationmode none
attr recordingmode sum
attr source packetLength(packetPulled)
attr title "outgoing packet lengths, sum"
attr unit b
statistic ManetprotocolsShowcaseB.source.wlan[0].mac.dcf.channelAccess.pendingQueue outgoingPacketLengths:histogram
field count 3
field mean 874.66666666667
field stddev 147.80166891254
field min 704
field max 960
field sum 2624
field sqrsum 2338816
attr interpolationmode none
attr recordingmode histogram
attr source packetLength(packetPulled)
attr title "outgoing packet lengths"
attr unit b
bin	-inf	0
bin	640	0
bin	645	0
bin	650	0
bin	655	0
bin	660	0
bin	665	0
bin	670	0
bin	675	0
bin	680	0
bin	685	0
bin	690	0
bin	695	0
bin	700	1
bin	705	0
bin	710	0
bin	715	0
bin	720	0
bin	725	0
bin	730	0
bin	735	0
bin	740	0
bin	745	0
bin	750	0
bin	755	0
bin	760	0
bin	765	0
bin	770	0
bin	775	0
bin	780	0
bin	785	0
bin	790	0
bin	795	0
bin	800	0
bin	805	0
bin	810	0
bin	815	0
bin	820	0
bin	825	0
bin	830	0
bin	835	0
bin	840	0
bin	845	0
bin	850	0
bin	855	0
bin	860	0
bin	865	0
bin	870	0
bin	875	0
bin	880	0
bin	885	0
bin	890	0
bin	895	0
bin	900	0
bin	905	0
bin	910	0
bin	915	0
bin	920	0
bin	925	0
bin	930	0
bin	935	0
bin	940	0
bin	945	0
bin	950	0
bin	955	0
bin	960	2
bin	965	0
bin	970	0
bin	975	0
bin	980	0
bin	985	0
bin	990	0
bin	995	0
bin	1000	0
bin	1005	0
bin	1010	0
bin	1015	0
bin	1020	0
bin	1025	0
statistic ManetprotocolsShowcaseB.source.wlan[0].mac.dcf.channelAccess.pendingQueue flowQueueingTime:histogram
field count 0
field mean nan
field stddev nan
field min nan
field max nan
field sum 0
field sqrsum 0
attr interpolationmode none
attr recordingmode histogram
attr source queueingTime(demuxFlow(packetPulled))
attr title "flow queueing times"
attr unit s
bin	-inf	0
bin	0	0
bin	1	0
scalar ManetprotocolsShowcaseB.source.wlan[0].mac.dcf.channelAccess.pendingQueue incomingPackets:count 3
attr recordingmode count
attr source packetPushStarted
attr title "incoming packets, count"
attr unit pk
scalar ManetprotocolsShowcaseB.source.wlan[0].mac.dcf.channelAccess.pendingQueue incomingPacketLengths:sum 2624
attr interpolationmode none
attr recordingmode sum
attr source packetLength(packetPushStarted)
attr title "incoming packet lengths, sum"
attr unit b
statistic ManetprotocolsShowcaseB.source.wlan[0].mac.dcf.channelAccess.pendingQueue incomingPacketLengths:histogram
field count 3
field mean 874.66666666667
field stddev 147.80166891254
field min 704
field max 960
field sum 2624
field sqrsum 2338816
attr interpolationmode none
attr recordingmode histogram
attr source packetLength(packetPushStarted)
attr title "incoming packet lengths"
attr unit b
bin	-inf	0
bin	640	0
bin	645	0
bin	650	0
bin	655	0
bin	660	0
bin	665	0
bin	670	0
bin	675	0
bin	680	0
bin	685	0
bin	690	0
bin	695	0
bin	700	1
bin	705	0
bin	710	0
bin	715	0
bin	720	0
bin	725	0
bin	730	0
bin	735	0
bin	740	0
bin	745	0
bin	750	0
bin	755	0
bin	760	0
bin	765	0
bin	770	0
bin	775	0
bin	780	0
bin	785	0
bin	790	0
bin	795	0
bin	800	0
bin	805	0
bin	810	0
bin	815	0
bin	820	0
bin	825	0
bin	830	0
bin	835	0
bin	840	0
bin	845	0
bin	850	0
bin	855	0
bin	860	0
bin	865	0
bin	870	0
bin	875	0
bin	880	0
bin	885	0
bin	890	0
bin	895	0
bin	900	0
bin	905	0
bin	910	0
bin	915	0
bin	920	0
bin	925	0
bin	930	0
bin	935	0
bin	940	0
bin	945	0
bin	950	0
bin	955	0
bin	960	2
bin	965	0
bin	970	0
bin	975	0
bin	980	0
bin	985	0
bin	990	0
bin	995	0
bin	1000	0
bin	1005	0
bin	1010	0
bin	1015	0
bin	1020	0
bin	1025	0
scalar ManetprotocolsShowcaseB.source.wlan[0].mac.dcf.channelAccess.pendingQueue droppedPacketsQueueOverflow:count 0
attr interpolationmode none
attr recordingmode count
attr source packetDropReasonIsQueueOverflow(packetDropped)
attr title "dropped packets: queue overflow, count"
attr unit pk
scalar ManetprotocolsShowcaseB.source.wlan[0].mac.dcf.channelAccess.pendingQueue droppedPacketLengthsQueueOverflow:sum 0
attr interpolationmode none
attr recordingmode sum
attr source packetLength(packetDropReasonIsQueueOverflow(packetDropped))
attr title "dropped packet lengths: queue overflow, sum"
attr unit b
par ManetprotocolsShowcaseB.source.wlan[0].mac.dcf.channelAccess.inProgressFrames typename "\"inet.linklayer.ieee80211.mac.queue.InProgressFrames\""
par ManetprotocolsShowcaseB.source.wlan[0].mac.dcf.channelAccess.inProgressFrames pendingQueueModule "\"^.pendingQueue\""
par ManetprotocolsShowcaseB.source.wlan[0].mac.dcf.channelAccess.inProgressFrames originatorMacDataServiceModule "\"^.^.originatorMacDataService\""
par ManetprotocolsShowcaseB.source.wlan[0].mac.dcf.channelAccess.inProgressFrames ackHandlerModule "\"^.^.ackHandler\""
statistic ManetprotocolsShowcaseB.source.wlan[0].mac.dcf.channelAccess.inProgressFrames queueingTime:histogram
field count 3
field mean 0.00041464157
field stddev 0.00013738762980488
field min 0.000256
field max 0.00049396729
field sum 0.00124392471
field sqrsum 5.53533616363e-07
attr interpolationmode none
attr recordingmode histogram
attr source queueingTime(packetDequeued)
attr title "queueing times"
bin	-inf	0
bin	0.000195	0
bin	0.0002	0
bin	0.000205	0
bin	0.00021	0
bin	0.000215	0
bin	0.00022	0
bin	0.000225	0
bin	0.00023	0
bin	0.000235	0
bin	0.00024	0
bin	0.000245	0
bin	0.00025	0
bin	0.000255	1
bin	0.00026	0
bin	0.000265	0
bin	0.00027	0
bin	0.000275	0
bin	0.00028	0
bin	0.000285	0
bin	0.00029	0
bin	0.000295	0
bin	0.0003	0
bin	0.000305	0
bin	0.00031	0
bin	0.000315	0
bin	0.00032	0
bin	0.000325	0
bin	0.00033	0
bin	0.000335	0
bin	0.00034	0
bin	0.000345	0
bin	0.00035	0
bin	0.000355	0
bin	0.00036	0
bin	0.000365	0
bin	0.00037	0
bin	0.000375	0
bin	0.00038	0
bin	0.000385	0
bin	0.00039	0
bin	0.000395	0
bin	0.0004	0
bin	0.000405	0
bin	0.00041	0
bin	0.000415	0
bin	0.00042	0
bin	0.000425	0
bin	0.00043	0
bin	0.000435	0
bin	0.00044	0
bin	0.000445	0
bin	0.00045	0
bin	0.000455	0
bin	0.00046	0
bin	0.000465	0
bin	0.00047	0
bin	0.000475	0
bin	0.00048	0
bin	0.000485	0
bin	0.00049	2
bin	0.000495	0
bin	0.0005	0
bin	0.000505	0
bin	0.00051	0
bin	0.000515	0
bin	0.00052	0
bin	0.000525	0
bin	0.00053	0
bin	0.000535	0
bin	0.00054	0
bin	0.000545	0
bin	0.00055	0
bin	0.000555	0
scalar ManetprotocolsShowcaseB.source.wlan[0].mac.dcf.channelAccess.inProgressFrames queueLength:max 1
attr autoWarmupFilter false
attr interpolationmode sample-hold
attr recordingmode max
attr source "warmup(count(packetEnqueued) - count(packetDequeued))"
attr title "queue length, max"
scalar ManetprotocolsShowcaseB.source.wlan[0].mac.dcf.channelAccess.inProgressFrames queueLength:timeavg 0.00052889951234223
attr autoWarmupFilter false
attr interpolationmode sample-hold
attr recordingmode timeavg
attr source "warmup(count(packetEnqueued) - count(packetDequeued))"
attr title "queue length, timeavg"
par ManetprotocolsShowcaseB.source.wlan[0].mac.dcf.channelAccess.contention typename "\"inet.linklayer.ieee80211.mac.contention.Contention\""
par ManetprotocolsShowcaseB.source.wlan[0].mac.dcf.channelAccess.contention initialChannelBusy true
par ManetprotocolsShowcaseB.source.wlan[0].mac.dcf.channelAccess.contention backoffOptimization true
scalar ManetprotocolsShowcaseB.source.wlan[0].mac.dcf.channelAccess.contention stateChanged:count 106
attr enum IDLE,DEFER,IFS_AND_BACKOFF
attr interpolationmode none
attr recordingmode count
attr title "contention state changed, count"
attr type enum
scalar ManetprotocolsShowcaseB.source.wlan[0].mac.dcf.channelAccess.contention channelAccessGranted:count 3
attr recordingmode count
attr title "channel access granted, count"
par ManetprotocolsShowcaseB.source.wlan[0].mac.dcf.channelAccess typename "\"inet.linklayer.ieee80211.mac.channelaccess.Dcaf\""
par ManetprotocolsShowcaseB.source.wlan[0].mac.dcf.channelAccess difsn -1
par ManetprotocolsShowcaseB.source.wlan[0].mac.dcf.channelAccess cwMin -1
par ManetprotocolsShowcaseB.source.wlan[0].mac.dcf.channelAccess cwMax -1
par ManetprotocolsShowcaseB.source.wlan[0].mac.dcf.channelAccess rxModule "\"^.^.rx\""
scalar ManetprotocolsShowcaseB.source.wlan[0].mac.dcf.channelAccess channelOwnershipChanged:count 6
attr interpolationmode sample-hold
attr recordingmode count
attr title "channel ownership, count"
par ManetprotocolsShowcaseB.source.wlan[0].mac.dcf.originatorMacDataService.fragmentationPolicy typename "\"inet.linklayer.ieee80211.mac.fragmentation.BasicFragmentationPolicy\""
par ManetprotocolsShowcaseB.source.wlan[0].mac.dcf.originatorMacDataService.fragmentationPolicy fragmentationThreshold 1500B
attr unit B
par ManetprotocolsShowcaseB.source.wlan[0].mac.dcf.originatorMacDataService typename "\"inet.linklayer.ieee80211.mac.originator.OriginatorMacDataService\""
scalar ManetprotocolsShowcaseB.source.wlan[0].mac.dcf.originatorMacDataService packetAggregated:count 0
attr recordingmode count
attr title "packets aggregated, count"
scalar ManetprotocolsShowcaseB.source.wlan[0].mac.dcf.originatorMacDataService packetFragmented:count 0
attr recordingmode count
attr title "packets fragmented, count"
par ManetprotocolsShowcaseB.source.wlan[0].mac.dcf.recipientMacDataService typename "\"inet.linklayer.ieee80211.mac.recipient.RecipientMacDataService\""
scalar ManetprotocolsShowcaseB.source.wlan[0].mac.dcf.recipientMacDataService packetDropDuplicateDetected:count 0
attr interpolationmode none
attr recordingmode count
attr source packetDropReasonIsDuplicateDetected(packetDropped)
attr title "packet drops: duplicate detected, count"
scalar ManetprotocolsShowcaseB.source.wlan[0].mac.dcf.recipientMacDataService packetDropDuplicateDetected:sum(packetBytes) 0
attr interpolationmode none
attr recordingmode sum(packetBytes)
attr source packetDropReasonIsDuplicateDetected(packetDropped)
attr title "packet drops: duplicate detected, sum(packetBytes)"
scalar ManetprotocolsShowcaseB.source.wlan[0].mac.dcf.recipientMacDataService packetDeaggregated:count 0
attr recordingmode count
attr title "packets deaggregated, count"
scalar ManetprotocolsShowcaseB.source.wlan[0].mac.dcf.recipientMacDataService packetDefragmented:count 10
attr recordingmode count
attr title "packets defragmented, count"
par ManetprotocolsShowcaseB.source.wlan[0].mac.dcf.rateSelection typename "\"inet.linklayer.ieee80211.mac.rateselection.RateSelection\""
par ManetprotocolsShowcaseB.source.wlan[0].mac.dcf.rateSelection rateControlModule "\"^.rateControl\""
par ManetprotocolsShowcaseB.source.wlan[0].mac.dcf.rateSelection multicastFrameBitrate -1bps
attr unit bps
par ManetprotocolsShowcaseB.source.wlan[0].mac.dcf.rateSelection responseAckFrameBitrate -1bps
attr unit bps
par ManetprotocolsShowcaseB.source.wlan[0].mac.dcf.rateSelection responseCtsFrameBitrate -1bps
attr unit bps
par ManetprotocolsShowcaseB.source.wlan[0].mac.dcf.rateSelection dataFrameBitrate 1.1e+07bps
attr unit bps
par ManetprotocolsShowcaseB.source.wlan[0].mac.dcf.rateSelection dataFrameBandwidth "nan Hz"
attr unit Hz
par ManetprotocolsShowcaseB.source.wlan[0].mac.dcf.rateSelection dataFrameNumSpatialStreams -1
par ManetprotocolsShowcaseB.source.wlan[0].mac.dcf.rateSelection mgmtFrameBitrate -1bps
attr unit bps
par ManetprotocolsShowcaseB.source.wlan[0].mac.dcf.rateSelection controlFrameBitrate -1bps
attr unit bps
par ManetprotocolsShowcaseB.source.wlan[0].mac.dcf.recoveryProcedure typename "\"inet.linklayer.ieee80211.mac.originator.NonQosRecoveryProcedure\""
par ManetprotocolsShowcaseB.source.wlan[0].mac.dcf.recoveryProcedure cwCalculatorModule "\"^.channelAccess\""
par ManetprotocolsShowcaseB.source.wlan[0].mac.dcf.recoveryProcedure rtsPolicyModule "\"^.rtsPolicy\""
par ManetprotocolsShowcaseB.source.wlan[0].mac.dcf.recoveryProcedure shortRetryLimit 7
par ManetprotocolsShowcaseB.source.wlan[0].mac.dcf.recoveryProcedure longRetryLimit 4
scalar ManetprotocolsShowcaseB.source.wlan[0].mac.dcf.recoveryProcedure retryLimitReached:count 0
attr recordingmode count
attr title "retry limit reached, count"
par ManetprotocolsShowcaseB.source.wlan[0].mac.dcf.originatorProtectionMechanism typename "\"inet.linklayer.ieee80211.mac.protectionmechanism.OriginatorProtectionMechanism\""
par ManetprotocolsShowcaseB.source.wlan[0].mac.dcf.originatorProtectionMechanism rateSelectionModule "\"^.rateSelection\""
par ManetprotocolsShowcaseB.source.wlan[0].mac.dcf.ackHandler typename "\"inet.linklayer.ieee80211.mac.originator.AckHandler\""
par ManetprotocolsShowcaseB.source.wlan[0].mac.dcf.originatorAckPolicy typename "\"inet.linklayer.ieee80211.mac.originator.OriginatorAckPolicy\""
par ManetprotocolsShowcaseB.source.wlan[0].mac.dcf.originatorAckPolicy rateSelectionModule "\"^.rateSelection\""
par ManetprotocolsShowcaseB.source.wlan[0].mac.dcf.originatorAckPolicy ackTimeout -1s
attr unit s
par ManetprotocolsShowcaseB.source.wlan[0].mac.dcf.recipientAckPolicy typename "\"inet.linklayer.ieee80211.mac.recipient.RecipientAckPolicy\""
par ManetprotocolsShowcaseB.source.wlan[0].mac.dcf.recipientAckPolicy rateSelectionModule "\"^.rateSelection\""
par ManetprotocolsShowcaseB.source.wlan[0].mac.dcf.rtsPolicy typename "\"inet.linklayer.ieee80211.mac.originator.RtsPolicy\""
par ManetprotocolsShowcaseB.source.wlan[0].mac.dcf.rtsPolicy rateSelectionModule "\"^.rateSelection\""
par ManetprotocolsShowcaseB.source.wlan[0].mac.dcf.rtsPolicy ctsTimeout -1s
attr unit s
par ManetprotocolsShowcaseB.source.wlan[0].mac.dcf.rtsPolicy rtsThreshold 2346B
attr unit B
par ManetprotocolsShowcaseB.source.wlan[0].mac.dcf.ctsPolicy typename "\"inet.linklayer.ieee80211.mac.recipient.CtsPolicy\""
par ManetprotocolsShowcaseB.source.wlan[0].mac.dcf.ctsPolicy rxModule "\"^.^.rx\""
par ManetprotocolsShowcaseB.source.wlan[0].mac.dcf.ctsPolicy rateSelectionModule "\"^.rateSelection\""
par ManetprotocolsShowcaseB.source.wlan[0].mac.dcf typename "\"inet.linklayer.ieee80211.mac.coordinationfunction.Dcf\""
par ManetprotocolsShowcaseB.source.wlan[0].mac.dcf rxModule "\"^.rx\""
par ManetprotocolsShowcaseB.source.wlan[0].mac.dcf txModule "\"^.tx\""
scalar ManetprotocolsShowcaseB.source.wlan[0].mac.dcf packetReceivedFromPeer:count 12
attr interpolationmode none
attr recordingmode count
attr title "packets received, count"
scalar ManetprotocolsShowcaseB.source.wlan[0].mac.dcf packetReceivedFromPeer:sum(packetBytes) 968
attr interpolationmode none
attr recordingmode sum(packetBytes)
attr title "packets received, sum(packetBytes)"
scalar ManetprotocolsShowcaseB.source.wlan[0].mac.dcf packetReceivedFromPeerUnicast:count 5
attr interpolationmode none
attr recordingmode count
attr source ieee80211Unicast(packetReceivedFromPeer)
attr title "packets received: unicast, count"
scalar ManetprotocolsShowcaseB.source.wlan[0].mac.dcf packetReceivedFromPeerUnicast:sum(packetBytes) 352
attr interpolationmode none
attr recordingmode sum(packetBytes)
attr source ieee80211Unicast(packetReceivedFromPeer)
attr title "packets received: unicast, sum(packetBytes)"
scalar ManetprotocolsShowcaseB.source.wlan[0].mac.dcf packetReceivedFromPeerMulticast:count 7
attr interpolationmode none
attr recordingmode count
attr source ieee80211Multicast(packetReceivedFromPeer)
attr title "packets received: multicast, count"
scalar ManetprotocolsShowcaseB.source.wlan[0].mac.dcf packetReceivedFromPeerMulticast:sum(packetBytes) 616
attr interpolationmode none
attr recordingmode sum(packetBytes)
attr source ieee80211Multicast(packetReceivedFromPeer)
attr title "packets received: multicast, sum(packetBytes)"
scalar ManetprotocolsShowcaseB.source.wlan[0].mac.dcf packetReceivedFromPeerBroadcast:count 7
attr interpolationmode none
attr recordingmode count
attr source ieee80211Broadcast(packetReceivedFromPeer)
attr title "packets received: broadcast, count"
scalar ManetprotocolsShowcaseB.source.wlan[0].mac.dcf packetReceivedFromPeerBroadcast:sum(packetBytes) 616
attr interpolationmode none
attr recordingmode sum(packetBytes)
attr source ieee80211Broadcast(packetReceivedFromPeer)
attr title "packets received: broadcast, sum(packetBytes)"
scalar ManetprotocolsShowcaseB.source.wlan[0].mac.dcf packetReceivedFromPeerWithRetry:count 0
attr interpolationmode none
attr recordingmode count
attr source ieee80211Retry(packetReceivedFromPeer)
attr title "packets received: with retry, count"
scalar ManetprotocolsShowcaseB.source.wlan[0].mac.dcf packetReceivedFromPeerWithRetry:sum(packetBytes) 0
attr interpolationmode none
attr recordingmode sum(packetBytes)
attr source ieee80211Retry(packetReceivedFromPeer)
attr title "packets received: with retry, sum(packetBytes)"
scalar ManetprotocolsShowcaseB.source.wlan[0].mac.dcf packetReceivedFromPeerWithoutRetry:count 12
attr interpolationmode none
attr recordingmode count
attr source ieee80211NotRetry(packetReceivedFromPeer)
attr title "packets received: without retry, count"
scalar ManetprotocolsShowcaseB.source.wlan[0].mac.dcf packetReceivedFromPeerWithoutRetry:sum(packetBytes) 968
attr interpolationmode none
attr recordingmode sum(packetBytes)
attr source ieee80211NotRetry(packetReceivedFromPeer)
attr title "packets received: without retry, sum(packetBytes)"
scalar ManetprotocolsShowcaseB.source.wlan[0].mac.dcf packetSentToPeer:count 6
attr interpolationmode none
attr recordingmode count
attr title "packets sent, count"
scalar ManetprotocolsShowcaseB.source.wlan[0].mac.dcf packetSentToPeer:sum(packetBytes) 370
attr interpolationmode none
attr recordingmode sum(packetBytes)
attr title "packets sent, sum(packetBytes)"
scalar ManetprotocolsShowcaseB.source.wlan[0].mac.dcf packetSentToPeerUnicast:count 5
attr interpolationmode none
attr recordingmode count
attr source ieee80211Unicast(packetSentToPeer)
attr title "packets sent: unicast, count"
scalar ManetprotocolsShowcaseB.source.wlan[0].mac.dcf packetSentToPeerUnicast:sum(packetBytes) 282
attr interpolationmode none
attr recordingmode sum(packetBytes)
attr source ieee80211Unicast(packetSentToPeer)
attr title "packets sent: unicast, sum(packetBytes)"
scalar ManetprotocolsShowcaseB.source.wlan[0].mac.dcf packetSentToPeerMulticast:count 1
attr interpolationmode none
attr recordingmode count
attr source ieee80211Multicast(packetSentToPeer)
attr title "packets sent: multicast, count"
scalar ManetprotocolsShowcaseB.source.wlan[0].mac.dcf packetSentToPeerMulticast:sum(packetBytes) 88
attr interpolationmode none
attr recordingmode sum(packetBytes)
attr source ieee80211Multicast(packetSentToPeer)
attr title "packets sent: multicast, sum(packetBytes)"
scalar ManetprotocolsShowcaseB.source.wlan[0].mac.dcf packetSentToPeerBroadcast:count 1
attr interpolationmode none
attr recordingmode count
attr source ieee80211Broadcast(packetSentToPeer)
attr title "packets sent: broadcast , count"
scalar ManetprotocolsShowcaseB.source.wlan[0].mac.dcf packetSentToPeerBroadcast:sum(packetBytes) 88
attr interpolationmode none
attr recordingmode sum(packetBytes)
attr source ieee80211Broadcast(packetSentToPeer)
attr title "packets sent: broadcast , sum(packetBytes)"
scalar ManetprotocolsShowcaseB.source.wlan[0].mac.dcf packetSentToPeerWithRetry:count 0
attr interpolationmode none
attr recordingmode count
attr source ieee80211Retry(packetSentToPeer)
attr title "packets sent: with retry, count"
scalar ManetprotocolsShowcaseB.source.wlan[0].mac.dcf packetSentToPeerWithRetry:sum(packetBytes) 0
attr interpolationmode none
attr recordingmode sum(packetBytes)
attr source ieee80211Retry(packetSentToPeer)
attr title "packets sent: with retry, sum(packetBytes)"
scalar ManetprotocolsShowcaseB.source.wlan[0].mac.dcf packetSentToPeerWithoutRetry:count 6
attr interpolationmode none
attr recordingmode count
attr source ieee80211NotRetry(packetSentToPeer)
attr title "packets sent: without retry, count"
scalar ManetprotocolsShowcaseB.source.wlan[0].mac.dcf packetSentToPeerWithoutRetry:sum(packetBytes) 370
attr interpolationmode none
attr recordingmode sum(packetBytes)
attr source ieee80211NotRetry(packetSentToPeer)
attr title "packets sent: without retry, sum(packetBytes)"
scalar ManetprotocolsShowcaseB.source.wlan[0].mac.dcf packetDrop:count 5
attr interpolationmode none
attr recordingmode count
attr source packetDropped
attr title "packet drops, count"
scalar ManetprotocolsShowcaseB.source.wlan[0].mac.dcf packetDrop:sum(packetBytes) 282
attr interpolationmode none
attr recordingmode sum(packetBytes)
attr source packetDropped
attr title "packet drops, sum(packetBytes)"
scalar ManetprotocolsShowcaseB.source.wlan[0].mac.dcf packetDropNotAddressedToUs:count 5
attr interpolationmode none
attr recordingmode count
attr source packetDropReasonIsNotAddressedToUs(packetDropped)
attr title "packet drops: not addressed to us, count"
scalar ManetprotocolsShowcaseB.source.wlan[0].mac.dcf packetDropNotAddressedToUs:sum(packetBytes) 282
attr interpolationmode none
attr recordingmode sum(packetBytes)
attr source packetDropReasonIsNotAddressedToUs(packetDropped)
attr title "packet drops: not addressed to us, sum(packetBytes)"
scalar ManetprotocolsShowcaseB.source.wlan[0].mac.dcf packetDropQueueOverflow:count 0
attr interpolationmode none
attr recordingmode count
attr source packetDropReasonIsQueueOverflow(packetDropped)
attr title "packet drops: queue overflow, count"
scalar ManetprotocolsShowcaseB.source.wlan[0].mac.dcf packetDropQueueOverflow:sum(packetBytes) 0
attr interpolationmode none
attr recordingmode sum(packetBytes)
attr source packetDropReasonIsQueueOverflow(packetDropped)
attr title "packet drops: queue overflow, sum(packetBytes)"
scalar ManetprotocolsShowcaseB.source.wlan[0].mac.dcf packetDropRetryLimitReached:count 0
attr interpolationmode none
attr recordingmode count
attr source packetDropReasonIsRetryLimitReached(packetDropped)
attr title "packet drops: retry limit reached, count"
scalar ManetprotocolsShowcaseB.source.wlan[0].mac.dcf packetDropRetryLimitReached:sum(packetBytes) 0
attr interpolationmode none
attr recordingmode sum(packetBytes)
attr source packetDropReasonIsRetryLimitReached(packetDropped)
attr title "packet drops: retry limit reached, sum(packetBytes)"
scalar ManetprotocolsShowcaseB.source.wlan[0].mac.dcf linkBroken:count 0
attr interpolationmode none
attr recordingmode count
attr title "link breaks, count"
scalar ManetprotocolsShowcaseB.source.wlan[0].mac.dcf frameSequenceFinished:count 3
attr recordingmode count
attr title "finished frame sequences, count"
statistic ManetprotocolsShowcaseB.source.wlan[0].mac.dcf frameSequenceDuration:histogram
field count 3
field mean 0.00041464157
field stddev 0.00013738762980488
field min 0.000256
field max 0.00049396729
field sum 0.00124392471
field sqrsum 5.53533616363e-07
attr recordingmode histogram
attr source frameSequenceDuration(frameSequenceFinished)
attr title "frame sequence durations"
bin	-inf	0
bin	0.000195	0
bin	0.0002	0
bin	0.000205	0
bin	0.00021	0
bin	0.000215	0
bin	0.00022	0
bin	0.000225	0
bin	0.00023	0
bin	0.000235	0
bin	0.00024	0
bin	0.000245	0
bin	0.00025	0
bin	0.000255	1
bin	0.00026	0
bin	0.000265	0
bin	0.00027	0
bin	0.000275	0
bin	0.00028	0
bin	0.000285	0
bin	0.00029	0
bin	0.000295	0
bin	0.0003	0
bin	0.000305	0
bin	0.00031	0
bin	0.000315	0
bin	0.00032	0
bin	0.000325	0
bin	0.00033	0
bin	0.000335	0
bin	0.00034	0
bin	0.000345	0
bin	0.00035	0
bin	0.000355	0
bin	0.00036	0
bin	0.000365	0
bin	0.00037	0
bin	0.000375	0
bin	0.00038	0
bin	0.000385	0
bin	0.00039	0
bin	0.000395	0
bin	0.0004	0
bin	0.000405	0
bin	0.00041	0
bin	0.000415	0
bin	0.00042	0
bin	0.000425	0
bin	0.00043	0
bin	0.000435	0
bin	0.00044	0
bin	0.000445	0
bin	0.00045	0
bin	0.000455	0
bin	0.00046	0
bin	0.000465	0
bin	0.00047	0
bin	0.000475	0
bin	0.00048	0
bin	0.000485	0
bin	0.00049	2
bin	0.000495	0
bin	0.0005	0
bin	0.000505	0
bin	0.00051	0
bin	0.000515	0
bin	0.00052	0
bin	0.000525	0
bin	0.00053	0
bin	0.000535	0
bin	0.00054	0
bin	0.000545	0
bin	0.00055	0
bin	0.000555	0
statistic ManetprotocolsShowcaseB.source.wlan[0].mac.dcf frameSequenceNumPackets:histogram
field count 3
field mean 1.6666666666667
field stddev 0.57735026918963
field min 1
field max 2
field sum 5
field sqrsum 9
attr recordingmode histogram
attr source frameSequenceNumPackets(frameSequenceFinished)
attr title "frame sequences: number of packets"
bin	-inf	0
bin	0	0
bin	1	1
bin	2	2
bin	3	0
par ManetprotocolsShowcaseB.source.wlan[0].mac.ds typename "\"inet.linklayer.ieee80211.mac.Ds\""
par ManetprotocolsShowcaseB.source.wlan[0].mac.ds mibModule "\"ManetprotocolsShowcaseB.source.wlan[0].mib\""
par ManetprotocolsShowcaseB.source.wlan[0].mac.rx typename "\"inet.linklayer.ieee80211.mac.Rx\""
par ManetprotocolsShowcaseB.source.wlan[0].mac.tx typename "\"inet.linklayer.ieee80211.mac.Tx\""
par ManetprotocolsShowcaseB.source.wlan[0].mac.tx rxModule "\"^.rx\""
par ManetprotocolsShowcaseB.source.wlan[0].mac typename "\"inet.linklayer.ieee80211.mac.Ieee80211Mac\""
par ManetprotocolsShowcaseB.source.wlan[0].mac interfaceTableModule "\"ManetprotocolsShowcaseB.source.interfaceTable\""
par ManetprotocolsShowcaseB.source.wlan[0].mac mibModule "\"ManetprotocolsShowcaseB.source.wlan[0].mib\""
par ManetprotocolsShowcaseB.source.wlan[0].mac modeSet "\"g(mixed)\""
attr enum a,b,g(erp),g(mixed),n(mixed-2.4Ghz),p,ac
par ManetprotocolsShowcaseB.source.wlan[0].mac fcsMode "\"declared\""
attr enum declared,computed
par ManetprotocolsShowcaseB.source.wlan[0].mac initialRadioMode "\"receiver\""
attr enum off,sleep,receiver,transmitter,transceiver
par ManetprotocolsShowcaseB.source.wlan[0].mac mtu 2304B
attr unit B
par ManetprotocolsShowcaseB.source.wlan[0].mac qosStation false
scalar ManetprotocolsShowcaseB.source.wlan[0].mac packetReceivedFromLower:count 17
attr interpolationmode none
attr recordingmode count
attr title "packets received from lower layer, count"
scalar ManetprotocolsShowcaseB.source.wlan[0].mac packetReceivedFromLower:sum(packetBytes) 1250
attr interpolationmode none
attr recordingmode sum(packetBytes)
attr title "packets received from lower layer, sum(packetBytes)"
scalar ManetprotocolsShowcaseB.source.wlan[0].mac packetSentToLower:count 6
attr interpolationmode none
attr recordingmode count
attr title "packets sent to lower layer, count"
scalar ManetprotocolsShowcaseB.source.wlan[0].mac packetSentToLower:sum(packetBytes) 370
attr interpolationmode none
attr recordingmode sum(packetBytes)
attr title "packets sent to lower layer, sum(packetBytes)"
scalar ManetprotocolsShowcaseB.source.wlan[0].mac packetReceivedFromUpper:count 3
attr interpolationmode none
attr recordingmode count
attr title "packets received from upper layer, count"
scalar ManetprotocolsShowcaseB.source.wlan[0].mac packetReceivedFromUpper:sum(packetBytes) 244
attr interpolationmode none
attr recordingmode sum(packetBytes)
attr title "packets received from upper layer, sum(packetBytes)"
scalar ManetprotocolsShowcaseB.source.wlan[0].mac packetSentToUpper:count 10
attr interpolationmode none
attr recordingmode count
attr title "packets sent to upper layer, count"
scalar ManetprotocolsShowcaseB.source.wlan[0].mac packetSentToUpper:sum(packetBytes) 660
attr interpolationmode none
attr recordingmode sum(packetBytes)
attr title "packets sent to upper layer, sum(packetBytes)"
scalar ManetprotocolsShowcaseB.source.wlan[0].mac packetDrop:count 5
attr interpolationmode none
attr recordingmode count
attr source packetDropped
attr title "packet drops, count"
scalar ManetprotocolsShowcaseB.source.wlan[0].mac packetDrop:sum(packetBytes) 282
attr interpolationmode none
attr recordingmode sum(packetBytes)
attr source packetDropped
attr title "packet drops, sum(packetBytes)"
scalar ManetprotocolsShowcaseB.source.wlan[0].mac packetDropIncorrectlyReceived:count 0
attr interpolationmode none
attr recordingmode count
attr source packetDropReasonIsIncorrectlyReceived(packetDropped)
attr title "packet drops: incorrectly received, count"
scalar ManetprotocolsShowcaseB.source.wlan[0].mac packetDropIncorrectlyReceived:sum(packetBytes) 0
attr interpolationmode none
attr recordingmode sum(packetBytes)
attr source packetDropReasonIsIncorrectlyReceived(packetDropped)
attr title "packet drops: incorrectly received, sum(packetBytes)"
scalar ManetprotocolsShowcaseB.source.wlan[0].mac packetDropNotAddressedToUs:count 5
attr interpolationmode none
attr recordingmode count
attr source packetDropReasonIsNotAddressedToUs(packetDropped)
attr title "packet drops: not addressed to us, count"
scalar ManetprotocolsShowcaseB.source.wlan[0].mac packetDropNotAddressedToUs:sum(packetBytes) 282
attr interpolationmode none
attr recordingmode sum(packetBytes)
attr source packetDropReasonIsNotAddressedToUs(packetDropped)
attr title "packet drops: not addressed to us, sum(packetBytes)"
scalar ManetprotocolsShowcaseB.source.wlan[0].mac packetDropQueueOverflow:count 0
attr interpolationmode none
attr recordingmode count
attr source packetDropReasonIsQueueOverflow(packetDropped)
attr title "packet drops: queue overflow, count"
scalar ManetprotocolsShowcaseB.source.wlan[0].mac packetDropQueueOverflow:sum(packetBytes) 0
attr interpolationmode none
attr recordingmode sum(packetBytes)
attr source packetDropReasonIsQueueOverflow(packetDropped)
attr title "packet drops: queue overflow, sum(packetBytes)"
scalar ManetprotocolsShowcaseB.source.wlan[0].mac packetDropRetryLimitReached:count 0
attr interpolationmode none
attr recordingmode count
attr source packetDropReasonIsRetryLimitReached(packetDropped)
attr title "packet drops: retry limit reached, count"
scalar ManetprotocolsShowcaseB.source.wlan[0].mac packetDropRetryLimitReached:sum(packetBytes) 0
attr interpolationmode none
attr recordingmode sum(packetBytes)
attr source packetDropReasonIsRetryLimitReached(packetDropped)
attr title "packet drops: retry limit reached, sum(packetBytes)"
scalar ManetprotocolsShowcaseB.source.wlan[0].mac packetDropDuplicateDetected:count 0
attr interpolationmode none
attr recordingmode count
attr source packetDropReasonIsDuplicateDetected(packetDropped)
attr title "packet drops: duplicate detected, count"
scalar ManetprotocolsShowcaseB.source.wlan[0].mac packetDropDuplicateDetected:sum(packetBytes) 0
attr interpolationmode none
attr recordingmode sum(packetBytes)
attr source packetDropReasonIsDuplicateDetected(packetDropped)
attr title "packet drops: duplicate detected, sum(packetBytes)"
scalar ManetprotocolsShowcaseB.source.wlan[0].mac packetDropOther:count 0
attr interpolationmode none
attr recordingmode count
attr source packetDropReasonIsOther(packetDropped)
attr title "packet drops: other, count"
scalar ManetprotocolsShowcaseB.source.wlan[0].mac packetDropOther:sum(packetBytes) 0
attr interpolationmode none
attr recordingmode sum(packetBytes)
attr source packetDropReasonIsOther(packetDropped)
attr title "packet drops: other, sum(packetBytes)"
scalar ManetprotocolsShowcaseB.source.wlan[0].mac linkBroken:count 0
attr interpolationmode none
attr recordingmode count
attr title "link breaks, count"
par ManetprotocolsShowcaseB.source.wlan[0].radio.antenna typename "\"inet.physicallayer.wireless.common.antenna.IsotropicAntenna\""
par ManetprotocolsShowcaseB.source.wlan[0].radio.antenna mobilityModule "\"^.^.^.mobility\""
par ManetprotocolsShowcaseB.source.wlan[0].radio.antenna numAntennas 1
par ManetprotocolsShowcaseB.source.wlan[0].radio.transmitter typename "\"inet.physicallayer.wireless.ieee80211.packetlevel.Ieee80211ScalarTransmitter\""
par ManetprotocolsShowcaseB.source.wlan[0].radio.transmitter preambleDuration -1s
attr unit s
par ManetprotocolsShowcaseB.source.wlan[0].radio.transmitter headerLength 192b
attr unit b
par ManetprotocolsShowcaseB.source.wlan[0].radio.transmitter bitrate 1.1e+07bps
attr unit bps
par ManetprotocolsShowcaseB.source.wlan[0].radio.transmitter power 0.001W
attr unit W
par ManetprotocolsShowcaseB.source.wlan[0].radio.transmitter centerFrequency 2.412e+09Hz
attr unit Hz
par ManetprotocolsShowcaseB.source.wlan[0].radio.transmitter bandwidth "nan Hz"
attr unit Hz
par ManetprotocolsShowcaseB.source.wlan[0].radio.transmitter codeRate 1
par ManetprotocolsShowcaseB.source.wlan[0].radio.transmitter modulation "\"BPSK\""
par ManetprotocolsShowcaseB.source.wlan[0].radio.transmitter opMode "\"g(mixed)\""
attr enum a,b,g(erp),g(mixed),n(mixed-2.4Ghz),p,ac
par ManetprotocolsShowcaseB.source.wlan[0].radio.transmitter bandName "\"2.4 GHz\""
attr enum "2.4 GHz,5 GHz,5 GHz (20 MHz),5 GHz (40 MHz),5 GHz (80 MHz),5 GHz (160 MHz),5.9 GHz"
par ManetprotocolsShowcaseB.source.wlan[0].radio.transmitter channelNumber 0
par ManetprotocolsShowcaseB.source.wlan[0].radio.receiver.errorModel typename "\"inet.physicallayer.wireless.ieee80211.packetlevel.errormodel.Ieee80211NistErrorModel\""
par ManetprotocolsShowcaseB.source.wlan[0].radio.receiver.errorModel corruptionMode "\"packet\""
attr enum packet,chunk,byte,bit
par ManetprotocolsShowcaseB.source.wlan[0].radio.receiver.errorModel snirMode "\"min\""
attr enum min,mean
par ManetprotocolsShowcaseB.source.wlan[0].radio.receiver.errorModel snirOffset 0dB
attr unit dB
par ManetprotocolsShowcaseB.source.wlan[0].radio.receiver typename "\"inet.physicallayer.wireless.ieee80211.packetlevel.Ieee80211ScalarReceiver\""
par ManetprotocolsShowcaseB.source.wlan[0].radio.receiver snirThreshold 4dB
attr unit dB
par ManetprotocolsShowcaseB.source.wlan[0].radio.receiver snirThresholdMode "\"min\""
attr enum min,mean
par ManetprotocolsShowcaseB.source.wlan[0].radio.receiver energyDetection -85dBm
attr unit dBm
par ManetprotocolsShowcaseB.source.wlan[0].radio.receiver sensitivity -85dBm
attr unit dBm
par ManetprotocolsShowcaseB.source.wlan[0].radio.receiver centerFrequency 2.412e+09Hz
attr unit Hz
par ManetprotocolsShowcaseB.source.wlan[0].radio.receiver bandwidth 2.2e+07Hz
attr unit Hz
par ManetprotocolsShowcaseB.source.wlan[0].radio.receiver modulation "\"BPSK\""
par ManetprotocolsShowcaseB.source.wlan[0].radio.receiver opMode "\"g(mixed)\""
attr enum a,b,g(erp),g(mixed),n(mixed-2.4Ghz),p,ac
par ManetprotocolsShowcaseB.source.wlan[0].radio.receiver bandName "\"2.4 GHz\""
attr enum "2.4 GHz,5 GHz,5 GHz (20 MHz),5 GHz (40 MHz),5 GHz (80 MHz),5 GHz (160 MHz),5.9 GHz"
par ManetprotocolsShowcaseB.source.wlan[0].radio.receiver channelNumber 0
par ManetprotocolsShowcaseB.source.wlan[0].radio typename "\"inet.physicallayer.wireless.ieee80211.packetlevel.Ieee80211ScalarRadio\""
par ManetprotocolsShowcaseB.source.wlan[0].radio radioMediumModule "\"radioMedium\""
par ManetprotocolsShowcaseB.source.wlan[0].radio energySourceModule "\"\""
par ManetprotocolsShowcaseB.source.wlan[0].radio initialRadioMode "\"off\""
attr enum off,sleep,receiver,transmitter,transceiver
par ManetprotocolsShowcaseB.source.wlan[0].radio switchingTimes "\"ms 0 0 0 0 0 0 0 0 0 0 0 0 0 0 0 0 0 0 0 0 0 0 0 0 0\""
par ManetprotocolsShowcaseB.source.wlan[0].radio sendRawBytes false
par ManetprotocolsShowcaseB.source.wlan[0].radio separateTransmissionParts false
par ManetprotocolsShowcaseB.source.wlan[0].radio separateReceptionParts false
par ManetprotocolsShowcaseB.source.wlan[0].radio displayCommunicationRange false
par ManetprotocolsShowcaseB.source.wlan[0].radio displayInterferenceRange false
par ManetprotocolsShowcaseB.source.wlan[0].radio centerFrequency 2.412e+09Hz
attr unit Hz
par ManetprotocolsShowcaseB.source.wlan[0].radio bandwidth "nan Hz"
attr unit Hz
par ManetprotocolsShowcaseB.source.wlan[0].radio signalAnalogRepresentation "\"scalar\""
attr enum scalar,dimensional
par ManetprotocolsShowcaseB.source.wlan[0].radio opMode "\"g(mixed)\""
attr enum a,b,g(erp),g(mixed),n(mixed-2.4Ghz),p,ac
par ManetprotocolsShowcaseB.source.wlan[0].radio bandName "\"2.4 GHz\""
attr enum "2.4 GHz,5 GHz,5 GHz (20 MHz),5 GHz (40 MHz),5 GHz (80 MHz),5 GHz (160 MHz),5.9 GHz"
par ManetprotocolsShowcaseB.source.wlan[0].radio channelNumber 0
par ManetprotocolsShowcaseB.source.wlan[0].radio crcMode "\"declared\""
attr enum declared,computed
statistic ManetprotocolsShowcaseB.source.wlan[0].radio minSnir:histogram
field count 17
field mean 435.44097672272
field stddev 166.72903298177
field min 29.360463239578
field max 802.69403869813
field sum 7402.4966042862
field sqrsum 3668127.4785815
attr recordingmode histogram
attr source minimumSnir(packetSentToUpper)
attr title "Min SNIR"
bin	-inf	0
bin	0	0
bin	20	1
bin	40	0
bin	60	0
bin	80	1
bin	100	0
bin	120	0
bin	140	0
bin	160	0
bin	180	0
bin	200	0
bin	220	0
bin	240	0
bin	260	0
bin	280	0
bin	300	0
bin	320	1
bin	340	0
bin	360	0
bin	380	0
bin	400	0
bin	420	0
bin	440	1
bin	460	11
bin	480	0
bin	500	0
bin	520	1
bin	540	0
bin	560	0
bin	580	0
bin	600	0
bin	620	0
bin	640	0
bin	660	0
bin	680	0
bin	700	0
bin	720	0
bin	740	0
bin	760	0
bin	780	0
bin	800	1
bin	820	0
bin	840	0
bin	860	0
bin	880	0
bin	900	0
bin	920	0
bin	940	0
bin	960	0
bin	980	0
bin	1000	0
statistic ManetprotocolsShowcaseB.source.wlan[0].radio packetErrorRate:histogram
field count 17
field mean 0
field stddev 0
field min 0
field max 0
field sum 0
field sqrsum 0
attr recordingmode histogram
attr source packetErrorRate(packetSentToUpper)
attr title "Packet error rate"
bin	-inf	0
bin	-0.5	0
bin	-0.48	0
bin	-0.46	0
bin	-0.44	0
bin	-0.42	0
bin	-0.4	0
bin	-0.38	0
bin	-0.36	0
bin	-0.34	0
bin	-0.32	0
bin	-0.3	0
bin	-0.28	0
bin	-0.26	0
bin	-0.24	0
bin	-0.22	0
bin	-0.2	0
bin	-0.18	0
bin	-0.16	0
bin	-0.14	0
bin	-0.12	0
bin	-0.1	0
bin	-0.08	0
bin	-0.06	0
bin	-0.04	0
bin	-0.02	0
bin	0	17
bin	0.02	0
bin	0.04	0
bin	0.06	0
bin	0.08	0
bin	0.1	0
bin	0.12	0
bin	0.14	0
bin	0.16	0
bin	0.18	0
bin	0.2	0
bin	0.22	0
bin	0.24	0
bin	0.26	0
bin	0.28	0
bin	0.3	0
bin	0.32	0
bin	0.34	0
bin	0.36	0
bin	0.38	0
bin	0.4	0
bin	0.42	0
bin	0.44	0
bin	0.46	0
bin	0.48	0
bin	0.5	0
statistic ManetprotocolsShowcaseB.source.wlan[0].radio bitErrorRate:histogram
field count 0
field mean nan
field stddev nan
field min nan
field max nan
field sum 0
field sqrsum 0
attr recordingmode histogram
attr source bitErrorRate(packetSentToUpper)
attr title "Bit error rate"
bin	-inf	0
bin	0	0
bin	1	0
statistic ManetprotocolsShowcaseB.source.wlan[0].radio symbolErrorRate:histogram
field count 0
field mean nan
field stddev nan
field min nan
field max nan
field sum 0
field sqrsum 0
attr recordingmode histogram
attr source symbolErrorRate(packetSentToUpper)
attr title "Symbol error rate"
bin	-inf	0
bin	0	0
bin	1	0
scalar ManetprotocolsShowcaseB.source.wlan[0].radio transmissionState:count 24
attr interpolationmode sample-hold
attr recordingmode count
attr source transmissionStateChanged
attr title "Radio transmission state, count"
scalar ManetprotocolsShowcaseB.source.wlan[0].radio receptionState:count 47
attr interpolationmode sample-hold
attr recordingmode count
attr source receptionStateChanged
attr title "Radio reception state, count"
scalar ManetprotocolsShowcaseB.source.wlan[0].radio radioMode:count 15
attr interpolationmode sample-hold
attr recordingmode count
attr source radioModeChanged
attr title "Radio mode, count"
statistic ManetprotocolsShowcaseB.source.wlan[0].radio radioChannel:histogram
field count 1
field mean 0
field stddev nan
field min 0
field max 0
field sum 0
field sqrsum 0
attr interpolationmode sample-hold
attr recordingmode histogram
attr source radioChannelChanged
attr title "Radio channel"
bin	-inf	0
bin	-0.5	0
bin	-0.48	0
bin	-0.46	0
bin	-0.44	0
bin	-0.42	0
bin	-0.4	0
bin	-0.38	0
bin	-0.36	0
bin	-0.34	0
bin	-0.32	0
bin	-0.3	0
bin	-0.28	0
bin	-0.26	0
bin	-0.24	0
bin	-0.22	0
bin	-0.2	0
bin	-0.18	0
bin	-0.16	0
bin	-0.14	0
bin	-0.12	0
bin	-0.1	0
bin	-0.08	0
bin	-0.06	0
bin	-0.04	0
bin	-0.02	0
bin	0	1
bin	0.02	0
bin	0.04	0
bin	0.06	0
bin	0.08	0
bin	0.1	0
bin	0.12	0
bin	0.14	0
bin	0.16	0
bin	0.18	0
bin	0.2	0
bin	0.22	0
bin	0.24	0
bin	0.26	0
bin	0.28	0
bin	0.3	0
bin	0.32	0
bin	0.34	0
bin	0.36	0
bin	0.38	0
bin	0.4	0
bin	0.42	0
bin	0.44	0
bin	0.46	0
bin	0.48	0
bin	0.5	0
par ManetprotocolsShowcaseB.source.wlan[0] typename "\"inet.linklayer.ieee80211.Ieee80211Interface\""
par ManetprotocolsShowcaseB.source.wlan[0] displayStringTextFormat "\"%a (%i)\\n%m\""
par ManetprotocolsShowcaseB.source.wlan[0] recordPcap false
par ManetprotocolsShowcaseB.source.wlan[0] numPcapRecorders 0
par ManetprotocolsShowcaseB.source.wlan[0] interfaceTableModule "\"ManetprotocolsShowcaseB.source.interfaceTable\""
par ManetprotocolsShowcaseB.source.wlan[0] energySourceModule "\"\""
par ManetprotocolsShowcaseB.source.wlan[0] opMode "\"g(mixed)\""
attr enum a,b,g(erp),g(mixed),n(mixed-2.4Ghz),p,ac
par ManetprotocolsShowcaseB.source.wlan[0] address "\"0A-AA-00-00-00-01\""
attr mutable ""
par ManetprotocolsShowcaseB.source.wlan[0] protocol "\"\""
par ManetprotocolsShowcaseB.source.wlan[0] bitrate 1.1e+07bps
attr unit bps
scalar ManetprotocolsShowcaseB.source.wlan[0] packetDropInterfaceDown:count 0
attr interpolationmode none
attr recordingmode count
attr source packetDropReasonIsInterfaceDown(packetDropped)
attr title "packet drops: interface down, count"
scalar ManetprotocolsShowcaseB.source.wlan[0] packetDropInterfaceDown:sum(packetBytes) 0
attr interpolationmode none
attr recordingmode sum(packetBytes)
attr source packetDropReasonIsInterfaceDown(packetDropped)
attr title "packet drops: interface down, sum(packetBytes)"
scalar ManetprotocolsShowcaseB.source.wlan[0] packetDropNoCarrier:count 0
attr interpolationmode none
attr recordingmode count
attr source packetDropReasonIsNoCarrier(packetDropped)
attr title "packet drops: no carrier, count"
scalar ManetprotocolsShowcaseB.source.wlan[0] packetDropNoCarrier:sum(packetBytes) 0
attr interpolationmode none
attr recordingmode sum(packetBytes)
attr source packetDropReasonIsNoCarrier(packetDropped)
attr title "packet drops: no carrier, sum(packetBytes)"
par ManetprotocolsShowcaseB.source.ipv4.transportIn.channel typename "\"ned.IdealChannel\""
par ManetprotocolsShowcaseB.source.ipv4.up.out[0].channel typename "\"ned.IdealChannel\""
par ManetprotocolsShowcaseB.source.ipv4.lp.out[2].channel typename "\"ned.IdealChannel\""
par ManetprotocolsShowcaseB.source.ipv4.ifIn.channel typename "\"ned.IdealChannel\""
par ManetprotocolsShowcaseB.source.ipv4.configurator typename "\"inet.networklayer.configurator.ipv4.Ipv4NodeConfigurator\""
par ManetprotocolsShowcaseB.source.ipv4.configurator interfaceTableModule "\"ManetprotocolsShowcaseB.source.interfaceTable\""
par ManetprotocolsShowcaseB.source.ipv4.configurator routingTableModule "\"ManetprotocolsShowcaseB.source.ipv4.routingTable\""
par ManetprotocolsShowcaseB.source.ipv4.configurator networkConfiguratorModule "\"configurator\""
par ManetprotocolsShowcaseB.source.ipv4.configurator configureRoutingTable true
par ManetprotocolsShowcaseB.source.ipv4.routingTable typename "\"inet.networklayer.ipv4.Ipv4RoutingTable\""
par ManetprotocolsShowcaseB.source.ipv4.routingTable interfaceTableModule "\"ManetprotocolsShowcaseB.source.interfaceTable\""
par ManetprotocolsShowcaseB.source.ipv4.routingTable routerId "\"auto\""
par ManetprotocolsShowcaseB.source.ipv4.routingTable netmaskRoutes "\"\""
par ManetprotocolsShowcaseB.source.ipv4.routingTable forwarding true
par ManetprotocolsShowcaseB.source.ipv4.routingTable multicastForwarding false
par ManetprotocolsShowcaseB.source.ipv4.routingTable useAdminDist false
par ManetprotocolsShowcaseB.source.ipv4.routingTable routingFile "\"\""
par ManetprotocolsShowcaseB.source.ipv4.natTable typename "\"inet.networklayer.ipv4.Ipv4NatTable\""
par ManetprotocolsShowcaseB.source.ipv4.natTable networkProtocolModule "\"^.ip\""
par ManetprotocolsShowcaseB.source.ipv4.natTable config "<config/> at content:1"
par ManetprotocolsShowcaseB.source.ipv4.up typename "\"inet.common.MessageDispatcher\""
par ManetprotocolsShowcaseB.source.ipv4.up displayStringTextFormat "\"processed %p pk (%l)\""
par ManetprotocolsShowcaseB.source.ipv4.up forwardServiceRegistration true
par ManetprotocolsShowcaseB.source.ipv4.up forwardProtocolRegistration true
par ManetprotocolsShowcaseB.source.ipv4.igmp typename "\"inet.networklayer.ipv4.Igmpv2\""
par ManetprotocolsShowcaseB.source.ipv4.igmp interfaceTableModule "\"ManetprotocolsShowcaseB.source.interfaceTable\""
par ManetprotocolsShowcaseB.source.ipv4.igmp routingTableModule "\"ManetprotocolsShowcaseB.source.ipv4.routingTable\""
par ManetprotocolsShowcaseB.source.ipv4.igmp crcMode "\"declared\""
attr enum declared,computed
par ManetprotocolsShowcaseB.source.ipv4.igmp enabled true
par ManetprotocolsShowcaseB.source.ipv4.igmp robustnessVariable 2
par ManetprotocolsShowcaseB.source.ipv4.igmp queryInterval 125s
attr unit s
par ManetprotocolsShowcaseB.source.ipv4.igmp queryResponseInterval 10s
attr unit s
par ManetprotocolsShowcaseB.source.ipv4.igmp groupMembershipInterval 260s
attr unit s
par ManetprotocolsShowcaseB.source.ipv4.igmp otherQuerierPresentInterval 255s
attr unit s
par ManetprotocolsShowcaseB.source.ipv4.igmp startupQueryInterval 31.25s
attr unit s
par ManetprotocolsShowcaseB.source.ipv4.igmp startupQueryCount 2
par ManetprotocolsShowcaseB.source.ipv4.igmp lastMemberQueryInterval 1s
attr unit s
par ManetprotocolsShowcaseB.source.ipv4.igmp lastMemberQueryCount 2
par ManetprotocolsShowcaseB.source.ipv4.igmp unsolicitedReportInterval 10s
attr unit s
par ManetprotocolsShowcaseB.source.ipv4.icmp typename "\"inet.networklayer.ipv4.Icmp\""
par ManetprotocolsShowcaseB.source.ipv4.icmp interfaceTableModule "\"ManetprotocolsShowcaseB.source.interfaceTable\""
par ManetprotocolsShowcaseB.source.ipv4.icmp routingTableModule "\"ManetprotocolsShowcaseB.source.ipv4.routingTable\""
par ManetprotocolsShowcaseB.source.ipv4.icmp crcMode "\"declared\""
attr enum declared,computed
attr mutable ""
par ManetprotocolsShowcaseB.source.ipv4.icmp quoteLength 8B
attr mutable ""
attr unit B
par ManetprotocolsShowcaseB.source.ipv4.mp typename "\"inet.common.MessageDispatcher\""
par ManetprotocolsShowcaseB.source.ipv4.mp displayStringTextFormat "\"processed %p pk (%l)\""
par ManetprotocolsShowcaseB.source.ipv4.mp forwardServiceRegistration true
par ManetprotocolsShowcaseB.source.ipv4.mp forwardProtocolRegistration true
par ManetprotocolsShowcaseB.source.ipv4.ip typename "\"inet.networklayer.ipv4.Ipv4\""
par ManetprotocolsShowcaseB.source.ipv4.ip interfaceTableModule "\"ManetprotocolsShowcaseB.source.interfaceTable\""
par ManetprotocolsShowcaseB.source.ipv4.ip routingTableModule "\"ManetprotocolsShowcaseB.source.ipv4.routingTable\""
par ManetprotocolsShowcaseB.source.ipv4.ip arpModule "\"ManetprotocolsShowcaseB.source.ipv4.arp\""
par ManetprotocolsShowcaseB.source.ipv4.ip icmpModule "\"ManetprotocolsShowcaseB.source.ipv4.icmp\""
par ManetprotocolsShowcaseB.source.ipv4.ip crcMode "\"declared\""
attr enum declared,computed
par ManetprotocolsShowcaseB.source.ipv4.ip timeToLive 32
par ManetprotocolsShowcaseB.source.ipv4.ip multicastTimeToLive 32
par ManetprotocolsShowcaseB.source.ipv4.ip fragmentTimeout 60s
attr unit s
par ManetprotocolsShowcaseB.source.ipv4.ip limitedBroadcast false
par ManetprotocolsShowcaseB.source.ipv4.ip directBroadcastInterfaces "\"\""
scalar ManetprotocolsShowcaseB.source.ipv4.ip packetDropAddressResolutionFailed:count 0
attr interpolationmode none
attr recordingmode count
attr source packetDropReasonIsAddressResolutionFailed(packetDropped)
attr title "packet drop: address resolution failed, count"
scalar ManetprotocolsShowcaseB.source.ipv4.ip packetDropAddressResolutionFailed:sum(packetBytes) 0
attr interpolationmode none
attr recordingmode sum(packetBytes)
attr source packetDropReasonIsAddressResolutionFailed(packetDropped)
attr title "packet drop: address resolution failed, sum(packetBytes)"
scalar ManetprotocolsShowcaseB.source.ipv4.ip packetDropHopLimitReached:count 0
attr interpolationmode none
attr recordingmode count
attr source packetDropReasonIsHopLimitReached(packetDropped)
attr title "packet drop: hop limit reached, count"
scalar ManetprotocolsShowcaseB.source.ipv4.ip packetDropHopLimitReached:sum(packetBytes) 0
attr interpolationmode none
attr recordingmode sum(packetBytes)
attr source packetDropReasonIsHopLimitReached(packetDropped)
attr title "packet drop: hop limit reached, sum(packetBytes)"
scalar ManetprotocolsShowcaseB.source.ipv4.ip packetDropForwardingDisabled:count 0
attr interpolationmode none
attr recordingmode count
attr source packetDropReasonIsForwardingDisabled(packetDropped)
attr title "packet drop: forwarding disabled, count"
scalar ManetprotocolsShowcaseB.source.ipv4.ip packetDropForwardingDisabled:sum(packetBytes) 0
attr interpolationmode none
attr recordingmode sum(packetBytes)
attr source packetDropReasonIsForwardingDisabled(packetDropped)
attr title "packet drop: forwarding disabled, sum(packetBytes)"
scalar ManetprotocolsShowcaseB.source.ipv4.ip packetDropNoInterfaceFound:count 0
attr interpolationmode none
attr recordingmode count
attr source packetDropReasonIsNoInterfaceFound(packetDropped)
attr title "packet drop: no interface found, count"
scalar ManetprotocolsShowcaseB.source.ipv4.ip packetDropNoInterfaceFound:sum(packetBytes) 0
attr interpolationmode none
attr recordingmode sum(packetBytes)
attr source packetDropReasonIsNoInterfaceFound(packetDropped)
attr title "packet drop: no interface found, sum(packetBytes)"
scalar ManetprotocolsShowcaseB.source.ipv4.ip packetDropNoRouteFound:count 0
attr interpolationmode none
attr recordingmode count
attr source packetDropReasonIsNoRouteFound(packetDropped)
attr title "packet drop: no route found, count"
scalar ManetprotocolsShowcaseB.source.ipv4.ip packetDropNoRouteFound:sum(packetBytes) 0
attr interpolationmode none
attr recordingmode sum(packetBytes)
attr source packetDropReasonIsNoRouteFound(packetDropped)
attr title "packet drop: no route found, sum(packetBytes)"
scalar ManetprotocolsShowcaseB.source.ipv4.ip packetDropUndefined:count 0
attr interpolationmode none
attr recordingmode count
attr source packetDropReasonIsUndefined(packetDropped)
attr title "packet drop: undefined, count"
scalar ManetprotocolsShowcaseB.source.ipv4.ip packetDropUndefined:sum(packetBytes) 0
attr interpolationmode none
attr recordingmode sum(packetBytes)
attr source packetDropReasonIsUndefined(packetDropped)
attr title "packet drop: undefined, sum(packetBytes)"
par ManetprotocolsShowcaseB.source.ipv4.arp typename "\"inet.networklayer.arp.ipv4.GlobalArp\""
par ManetprotocolsShowcaseB.source.ipv4.arp interfaceTableModule "\"ManetprotocolsShowcaseB.source.interfaceTable\""
par ManetprotocolsShowcaseB.source.ipv4.arp addressType "\"ipv4\""
attr enum ipv4,ipv6,mac,moduleid,modulepath
par ManetprotocolsShowcaseB.source.ipv4.lp typename "\"inet.common.MessageDispatcher\""
par ManetprotocolsShowcaseB.source.ipv4.lp displayStringTextFormat "\"processed %p pk (%l)\""
par ManetprotocolsShowcaseB.source.ipv4.lp forwardServiceRegistration true
par ManetprotocolsShowcaseB.source.ipv4.lp forwardProtocolRegistration true
par ManetprotocolsShowcaseB.source.ipv4 typename "\"inet.networklayer.ipv4.Ipv4NetworkLayer\""
par ManetprotocolsShowcaseB.source.ipv4 forwarding true
par ManetprotocolsShowcaseB.source.ipv4 multicastForwarding false
par ManetprotocolsShowcaseB.source.ipv4 interfaceTableModule "\"ManetprotocolsShowcaseB.source.interfaceTable\""
par ManetprotocolsShowcaseB.source.ipv4 displayStringTextFormat "\"%i\""
par ManetprotocolsShowcaseB.source.nl typename "\"inet.common.MessageDispatcher\""
par ManetprotocolsShowcaseB.source.nl displayStringTextFormat "\"processed %p pk (%l)\""
par ManetprotocolsShowcaseB.source.nl forwardServiceRegistration true
par ManetprotocolsShowcaseB.source.nl forwardProtocolRegistration true
par ManetprotocolsShowcaseB.source.udp typename "\"inet.transportlayer.udp.Udp\""
par ManetprotocolsShowcaseB.source.udp interfaceTableModule "\"ManetprotocolsShowcaseB.source.interfaceTable\""
par ManetprotocolsShowcaseB.source.udp icmpModule "\"^.ipv4.icmp\""
par ManetprotocolsShowcaseB.source.udp icmpv6Module "\"^.ipv6.icmpv6\""
par ManetprotocolsShowcaseB.source.udp crcMode "\"declared\""
attr enum disabled,declared,computed
par ManetprotocolsShowcaseB.source.udp defaultMulticastLoop true
scalar ManetprotocolsShowcaseB.source.udp packetReceived:count 8
attr interpolationmode none
attr recordingmode count
attr source packetReceived
attr title "packets received, count"
scalar ManetprotocolsShowcaseB.source.udp packetReceived:sum(packetBytes) 252
attr interpolationmode none
attr recordingmode sum(packetBytes)
attr source packetReceived
attr title "packets received, sum(packetBytes)"
scalar ManetprotocolsShowcaseB.source.udp packetSent:count 1
attr interpolationmode none
attr recordingmode count
attr source packetSent
attr title "packets sent, count"
scalar ManetprotocolsShowcaseB.source.udp packetSent:sum(packetBytes) 32
attr interpolationmode none
attr recordingmode sum(packetBytes)
attr source packetSent
attr title "packets sent, sum(packetBytes)"
scalar ManetprotocolsShowcaseB.source.udp passedUpPk:count 8
attr interpolationmode none
attr recordingmode count
attr source packetSentToUpper
attr title "packets passed up, count"
scalar ManetprotocolsShowcaseB.source.udp droppedPkWrongPort:count 0
attr interpolationmode none
attr recordingmode count
attr source packetDropReasonIsNoPortFound(packetDropped)
attr title "packets dropped (wrong port), count"
scalar ManetprotocolsShowcaseB.source.udp droppedPkBadChecksum:count 0
attr interpolationmode none
attr recordingmode count
attr source packetDropReasonIsIncorrectlyReceived(packetDropped)
attr title "packets dropped (checksum error), count"
par ManetprotocolsShowcaseB.source.tcp typename "\"inet.transportlayer.tcp.Tcp\""
par ManetprotocolsShowcaseB.source.tcp crcMode "\"declared\""
attr enum declared,computed
par ManetprotocolsShowcaseB.source.tcp advertisedWindow 7504
par ManetprotocolsShowcaseB.source.tcp delayedAcksEnabled false
par ManetprotocolsShowcaseB.source.tcp nagleEnabled true
par ManetprotocolsShowcaseB.source.tcp limitedTransmitEnabled false
par ManetprotocolsShowcaseB.source.tcp increasedIWEnabled false
par ManetprotocolsShowcaseB.source.tcp sackSupport false
par ManetprotocolsShowcaseB.source.tcp windowScalingSupport false
par ManetprotocolsShowcaseB.source.tcp windowScalingFactor -1
par ManetprotocolsShowcaseB.source.tcp timestampSupport false
par ManetprotocolsShowcaseB.source.tcp mss 536
par ManetprotocolsShowcaseB.source.tcp msl 120s
attr unit s
par ManetprotocolsShowcaseB.source.tcp tcpAlgorithmClass "\"TcpReno\""
par ManetprotocolsShowcaseB.source.tcp useDataNotification false
par ManetprotocolsShowcaseB.source.tcp dupthresh 3
par ManetprotocolsShowcaseB.source.tcp initialSsthresh 4294967295
par ManetprotocolsShowcaseB.source.tcp stopOperationExtraTime 0s
attr unit s
par ManetprotocolsShowcaseB.source.tcp stopOperationTimeout 2s
attr unit s
par ManetprotocolsShowcaseB.source.tcp ecnWillingness false
par ManetprotocolsShowcaseB.source.tcp dctcpGamma 0.0625
par ManetprotocolsShowcaseB.source.tn typename "\"inet.common.MessageDispatcher\""
par ManetprotocolsShowcaseB.source.tn displayStringTextFormat "\"processed %p pk (%l)\""
par ManetprotocolsShowcaseB.source.tn forwardServiceRegistration true
par ManetprotocolsShowcaseB.source.tn forwardProtocolRegistration true
par ManetprotocolsShowcaseB.source.app[0] typename "\"inet.applications.pingapp.PingApp\""
par ManetprotocolsShowcaseB.source.app[0] destAddr "\"destination\""
par ManetprotocolsShowcaseB.source.app[0] srcAddr "\"\""
par ManetprotocolsShowcaseB.source.app[0] packetSize 56B
attr unit B
par ManetprotocolsShowcaseB.source.app[0] sendInterval 1s
attr unit s
par ManetprotocolsShowcaseB.source.app[0] hopLimit -1
par ManetprotocolsShowcaseB.source.app[0] count -1
par ManetprotocolsShowcaseB.source.app[0] startTime 0.844266s
attr unit s
par ManetprotocolsShowcaseB.source.app[0] stopTime -1s
attr unit s
par ManetprotocolsShowcaseB.source.app[0] sleepDuration 0s
attr unit s
par ManetprotocolsShowcaseB.source.app[0] continuous false
par ManetprotocolsShowcaseB.source.app[0] printPing true
par ManetprotocolsShowcaseB.source.app[0] crcMode "\"declared\""
attr enum declared,computed
par ManetprotocolsShowcaseB.source.app[0] networkProtocol "\"\""
par ManetprotocolsShowcaseB.source.app[0] stopOperationExtraTime -1s
attr unit s
par ManetprotocolsShowcaseB.source.app[0] stopOperationTimeout 2s
attr unit s
scalar ManetprotocolsShowcaseB.source.app[0] "Pings sent" 2
scalar ManetprotocolsShowcaseB.source.app[0] "ping loss rate (%)" 0
scalar ManetprotocolsShowcaseB.source.app[0] "ping out-of-order rate (%)" 0
scalar ManetprotocolsShowcaseB.source.app[0] pingRxSeq:count 2
attr interpolationmode none
attr recordingmode count
attr title "ping rx seq, count"
scalar ManetprotocolsShowcaseB.source.app[0] pingTxSeq:count 2
attr interpolationmode none
attr recordingmode count
attr title "ping tx seq, count"
scalar ManetprotocolsShowcaseB.source.app[0] numOutOfOrderArrivals:last nan
attr interpolationmode none
attr recordingmode last
attr title "ping out-of-order arrivals, last"
scalar ManetprotocolsShowcaseB.source.app[0] numLost:last nan
attr interpolationmode none
attr recordingmode last
attr title "pings lost, last"
statistic ManetprotocolsShowcaseB.source.app[0] rtt:histogram
field count 2
field mean 0.00958882608
field stddev 0.0098396776697923
field min 0.002631123275
field max 0.016546528885
field sum 0.01917765216
field sqrsum 0.00028071042783039
attr interpolationmode none
attr recordingmode histogram
attr title "ping round-trip time"
attr unit s
bin	-inf	0
bin	0	0
bin	0.0002	0
bin	0.0004	0
bin	0.0006	0
bin	0.0008	0
bin	0.001	0
bin	0.0012	0
bin	0.0014	0
bin	0.0016	0
bin	0.0018	0
bin	0.002	0
bin	0.0022	0
bin	0.0024	0
bin	0.0026	1
bin	0.0028	0
bin	0.003	0
bin	0.0032	0
bin	0.0034	0
bin	0.0036	0
bin	0.0038	0
bin	0.004	0
bin	0.0042	0
bin	0.0044	0
bin	0.0046	0
bin	0.0048	0
bin	0.005	0
bin	0.0052	0
bin	0.0054	0
bin	0.0056	0
bin	0.0058	0
bin	0.006	0
bin	0.0062	0
bin	0.0064	0
bin	0.0066	0
bin	0.0068	0
bin	0.007	0
bin	0.0072	0
bin	0.0074	0
bin	0.0076	0
bin	0.0078	0
bin	0.008	0
bin	0.0082	0
bin	0.0084	0
bin	0.0086	0
bin	0.0088	0
bin	0.009	0
bin	0.0092	0
bin	0.0094	0
bin	0.0096	0
bin	0.0098	0
bin	0.01	0
bin	0.0102	0
bin	0.0104	0
bin	0.0106	0
bin	0.0108	0
bin	0.011	0
bin	0.0112	0
bin	0.0114	0
bin	0.0116	0
bin	0.0118	0
bin	0.012	0
bin	0.0122	0
bin	0.0124	0
bin	0.0126	0
bin	0.0128	0
bin	0.013	0
bin	0.0132	0
bin	0.0134	0
bin	0.0136	0
bin	0.0138	0
bin	0.014	0
bin	0.0142	0
bin	0.0144	0
bin	0.0146	0
bin	0.0148	0
bin	0.015	0
bin	0.0152	0
bin	0.0154	0
bin	0.0156	0
bin	0.0158	0
bin	0.016	0
bin	0.0162	0
bin	0.0164	1
bin	0.0166	0
bin	0.0168	0
bin	0.017	0
bin	0.0172	0
bin	0.0174	0
bin	0.0176	0
bin	0.0178	0
bin	0.018	0
bin	0.0182	0
bin	0.0184	0
bin	0.0186	0
bin	0.0188	0
bin	0.019	0
bin	0.0192	0
bin	0.0194	0
bin	0.0196	0
bin	0.0198	0
bin	0.02	0
bin	0.0202	0
par ManetprotocolsShowcaseB.source.at typename "\"inet.common.MessageDispatcher\""
par ManetprotocolsShowcaseB.source.at displayStringTextFormat "\"processed %p pk (%l)\""
par ManetprotocolsShowcaseB.source.at forwardServiceRegistration true
par ManetprotocolsShowcaseB.source.at forwardProtocolRegistration true
par ManetprotocolsShowcaseB.source.routingApp typename "\"inet.routing.aodv.Aodv\""
par ManetprotocolsShowcaseB.source.routingApp routingTableModule "\"^.ipv4.routingTable\""
par ManetprotocolsShowcaseB.source.routingApp interfaceTableModule "\"ManetprotocolsShowcaseB.source.interfaceTable\""
par ManetprotocolsShowcaseB.source.routingApp networkProtocolModule "\"^.ipv4.ip\""
par ManetprotocolsShowcaseB.source.routingApp askGratuitousRREP false
par ManetprotocolsShowcaseB.source.routingApp useHelloMessages false
par ManetprotocolsShowcaseB.source.routingApp useLocalRepair false
par ManetprotocolsShowcaseB.source.routingApp destinationOnlyFlag false
par ManetprotocolsShowcaseB.source.routingApp udpPort 654
par ManetprotocolsShowcaseB.source.routingApp interface "\"wlan0\""
par ManetprotocolsShowcaseB.source.routingApp maxPeriodicJitter 0.25s
attr unit s
par ManetprotocolsShowcaseB.source.routingApp periodicJitter "uniform(0s, maxPeriodicJitter)"
attr unit s
par ManetprotocolsShowcaseB.source.routingApp maxJitter 0.005s
attr unit s
par ManetprotocolsShowcaseB.source.routingApp jitter "uniform(0ms, maxJitter)"
attr unit s
par ManetprotocolsShowcaseB.source.routingApp helloInterval 1s
attr unit s
par ManetprotocolsShowcaseB.source.routingApp allowedHelloLoss 2
par ManetprotocolsShowcaseB.source.routingApp activeRouteTimeout 1s
attr unit s
par ManetprotocolsShowcaseB.source.routingApp netDiameter 35
par ManetprotocolsShowcaseB.source.routingApp nodeTraversalTime 0.04s
attr unit s
par ManetprotocolsShowcaseB.source.routingApp rerrRatelimit 10
par ManetprotocolsShowcaseB.source.routingApp rreqRetries 2
par ManetprotocolsShowcaseB.source.routingApp rreqRatelimit 10
par ManetprotocolsShowcaseB.source.routingApp timeoutBuffer 2
par ManetprotocolsShowcaseB.source.routingApp ttlStart 2
par ManetprotocolsShowcaseB.source.routingApp ttlIncrement 2
par ManetprotocolsShowcaseB.source.routingApp ttlThreshold 7
par ManetprotocolsShowcaseB.source.routingApp localAddTTL 2
par ManetprotocolsShowcaseB.source.routingApp myRouteTimeout 2s
attr unit s
par ManetprotocolsShowcaseB.source.routingApp deletePeriod 0.5s
attr unit s
par ManetprotocolsShowcaseB.source.routingApp blacklistTimeout 5.6s
attr unit s
par ManetprotocolsShowcaseB.source.routingApp netTraversalTime 2.8s
attr unit s
par ManetprotocolsShowcaseB.source.routingApp nextHopWait 0.05s
attr unit s
par ManetprotocolsShowcaseB.source.routingApp pathDiscoveryTime 5.6s
attr unit s
par ManetprotocolsShowcaseB.source typename "\"inet.node.inet.ManetRouter\""
par ManetprotocolsShowcaseB.source hasStatus false
par ManetprotocolsShowcaseB.source osgModel "\"\""
par ManetprotocolsShowcaseB.source osgModelColor "\"\""
par ManetprotocolsShowcaseB.source canvasImage "\"\""
par ManetprotocolsShowcaseB.source canvasImageColor "\"\""
par ManetprotocolsShowcaseB.source recordPcap false
par ManetprotocolsShowcaseB.source numPcapRecorders 0
par ManetprotocolsShowcaseB.source numLoInterfaces 1
par ManetprotocolsShowcaseB.source numWlanInterfaces 1
par ManetprotocolsShowcaseB.source numEthInterfaces 0
par ManetprotocolsShowcaseB.source numPppInterfaces 0
par ManetprotocolsShowcaseB.source numTunInterfaces 0
par ManetprotocolsShowcaseB.source numVirtInterfaces 0
par ManetprotocolsShowcaseB.source fcsMode "\"declared\""
attr enum declared,computed
par ManetprotocolsShowcaseB.source hasIpv4 true
par ManetprotocolsShowcaseB.source hasIpv6 false
par ManetprotocolsShowcaseB.source hasGn false
par ManetprotocolsShowcaseB.source forwarding true
par ManetprotocolsShowcaseB.source multicastForwarding false
par ManetprotocolsShowcaseB.source hasUdp true
par ManetprotocolsShowcaseB.source hasTcp true
par ManetprotocolsShowcaseB.source hasSctp false
par ManetprotocolsShowcaseB.source numApps 1
par ManetprotocolsShowcaseB.node1.radioIn[0].channel typename "\"ned.IdealChannel\""
par ManetprotocolsShowcaseB.node1.mobility typename "\"inet.mobility.single.LinearMobility\""
par ManetprotocolsShowcaseB.node1.mobility subjectModule "\"^\""
par ManetprotocolsShowcaseB.node1.mobility coordinateSystemModule "\"\""
par ManetprotocolsShowcaseB.node1.mobility displayStringTextFormat "\"p: %p\\nv: %v\""
attr mutable ""
par ManetprotocolsShowcaseB.node1.mobility updateDisplayString true
par ManetprotocolsShowcaseB.node1.mobility constraintAreaMinX 0m
attr unit m
par ManetprotocolsShowcaseB.node1.mobility constraintAreaMinY 0m
attr unit m
par ManetprotocolsShowcaseB.node1.mobility constraintAreaMinZ "-inf m"
attr unit m
par ManetprotocolsShowcaseB.node1.mobility constraintAreaMaxX 2000m
attr unit m
par ManetprotocolsShowcaseB.node1.mobility constraintAreaMaxY 2000m
attr unit m
par ManetprotocolsShowcaseB.node1.mobility constraintAreaMaxZ "inf m"
attr unit m
par ManetprotocolsShowcaseB.node1.mobility updateInterval 0.1s
attr unit s
par ManetprotocolsShowcaseB.node1.mobility faceForward true
par ManetprotocolsShowcaseB.node1.mobility initialX 1205.53m
attr unit m
par ManetprotocolsShowcaseB.node1.mobility initialY 1715.89m
attr unit m
par ManetprotocolsShowcaseB.node1.mobility initialZ 0m
attr unit m
par ManetprotocolsShowcaseB.node1.mobility initFromDisplayString true
par ManetprotocolsShowcaseB.node1.mobility speed 2mps
attr unit mps
par ManetprotocolsShowcaseB.node1.mobility initialMovementHeading 305.011deg
attr unit deg
par ManetprotocolsShowcaseB.node1.mobility initialMovementElevation 0deg
attr unit deg
par ManetprotocolsShowcaseB.node1.interfaceTable typename "\"inet.networklayer.common.InterfaceTable\""
par ManetprotocolsShowcaseB.node1.interfaceTable displayAddresses false
par ManetprotocolsShowcaseB.node1.cb typename "\"inet.common.MessageDispatcher\""
par ManetprotocolsShowcaseB.node1.cb displayStringTextFormat "\"processed %p pk (%l)\""
par ManetprotocolsShowcaseB.node1.cb forwardServiceRegistration true
par ManetprotocolsShowcaseB.node1.cb forwardProtocolRegistration true
par ManetprotocolsShowcaseB.node1.bl typename "\"inet.common.MessageDispatcher\""
par ManetprotocolsShowcaseB.node1.bl displayStringTextFormat "\"processed %p pk (%l)\""
par ManetprotocolsShowcaseB.node1.bl forwardServiceRegistration true
par ManetprotocolsShowcaseB.node1.bl forwardProtocolRegistration true
par ManetprotocolsShowcaseB.node1.li typename "\"inet.common.MessageDispatcher\""
par ManetprotocolsShowcaseB.node1.li displayStringTextFormat "\"processed %p pk (%l)\""
par ManetprotocolsShowcaseB.node1.li forwardServiceRegistration true
par ManetprotocolsShowcaseB.node1.li forwardProtocolRegistration true
par ManetprotocolsShowcaseB.node1.lo[0].upperLayerIn.channel typename "\"ned.IdealChannel\""
par ManetprotocolsShowcaseB.node1.lo[0].lo.upperLayerOut.channel typename "\"ned.IdealChannel\""
par ManetprotocolsShowcaseB.node1.lo[0].lo typename "\"inet.linklayer.loopback.Loopback\""
par ManetprotocolsShowcaseB.node1.lo[0].lo interfaceTableModule "\"ManetprotocolsShowcaseB.node1.interfaceTable\""
par ManetprotocolsShowcaseB.node1.lo[0].lo mtu 4470B
attr unit B
[...]
par ManetprotocolsShowcaseB.visualizer.canvasVisualizer.linkBreakVisualizer[0] nodeFilter "\"*\""
attr mutable ""
par ManetprotocolsShowcaseB.visualizer.canvasVisualizer.linkBreakVisualizer[0] interfaceFilter "\"*\""
attr mutable ""
par ManetprotocolsShowcaseB.visualizer.canvasVisualizer.linkBreakVisualizer[0] packetFilter "(omnetpp::cValueHolder)holder: \"*\""
attr mutable ""
par ManetprotocolsShowcaseB.visualizer.canvasVisualizer.linkBreakVisualizer[0] icon "\"status/stop\""
par ManetprotocolsShowcaseB.visualizer.canvasVisualizer.linkBreakVisualizer[0] iconTintAmount 0
par ManetprotocolsShowcaseB.visualizer.canvasVisualizer.linkBreakVisualizer[0] iconTintColor "\"\""
par ManetprotocolsShowcaseB.visualizer.canvasVisualizer.linkBreakVisualizer[0] fadeOutMode "\"realTime\""
attr enum realTime,animationTime,simulationTime
par ManetprotocolsShowcaseB.visualizer.canvasVisualizer.linkBreakVisualizer[0] fadeOutTime 1s
attr unit s
par ManetprotocolsShowcaseB.visualizer.canvasVisualizer.linkBreakVisualizer[0] fadeOutAnimationSpeed 0
par ManetprotocolsShowcaseB.visualizer.canvasVisualizer.linkBreakVisualizer[0] zIndex 2
par ManetprotocolsShowcaseB.visualizer.canvasVisualizer.ieee80211Visualizer[0] typename "\"inet.visualizer.canvas.linklayer.Ieee80211CanvasVisualizer\""
par ManetprotocolsShowcaseB.visualizer.canvasVisualizer.ieee80211Visualizer[0] visualizationTargetModule "\"^.^.^\""
par ManetprotocolsShowcaseB.visualizer.canvasVisualizer.ieee80211Visualizer[0] visualizationSubjectModule "\"^.^.^\""
par ManetprotocolsShowcaseB.visualizer.canvasVisualizer.ieee80211Visualizer[0] tags "\"\""
par ManetprotocolsShowcaseB.visualizer.canvasVisualizer.ieee80211Visualizer[0] networkNodeVisualizerModule "\"ManetprotocolsShowcaseB.visualizer.canvasVisualizer.networkNodeVisualizer[0]\""
par ManetprotocolsShowcaseB.visualizer.canvasVisualizer.ieee80211Visualizer[0] displayAssociations false
par ManetprotocolsShowcaseB.visualizer.canvasVisualizer.ieee80211Visualizer[0] nodeFilter "\"*\""
attr mutable ""
par ManetprotocolsShowcaseB.visualizer.canvasVisualizer.ieee80211Visualizer[0] interfaceFilter "\"*\""
attr mutable ""
par ManetprotocolsShowcaseB.visualizer.canvasVisualizer.ieee80211Visualizer[0] minPower -85dBm
attr unit dBm
par ManetprotocolsShowcaseB.visualizer.canvasVisualizer.ieee80211Visualizer[0] maxPower -50dBm
attr unit dBm
par ManetprotocolsShowcaseB.visualizer.canvasVisualizer.ieee80211Visualizer[0] icons "\"misc/signal_power_0 misc/signal_power_1 misc/signal_power_2 misc/signal_power_3\""
par ManetprotocolsShowcaseB.visualizer.canvasVisualizer.ieee80211Visualizer[0] iconColor "\"dark\""
par ManetprotocolsShowcaseB.visualizer.canvasVisualizer.ieee80211Visualizer[0] labelFont "\"<default>\""
par ManetprotocolsShowcaseB.visualizer.canvasVisualizer.ieee80211Visualizer[0] labelColor "\"black\""
par ManetprotocolsShowcaseB.visualizer.canvasVisualizer.ieee80211Visualizer[0] placementHint "\"top\""
par ManetprotocolsShowcaseB.visualizer.canvasVisualizer.ieee80211Visualizer[0] placementPriority 0
par ManetprotocolsShowcaseB.visualizer.canvasVisualizer.ieee80211Visualizer[0] zIndex 2
par ManetprotocolsShowcaseB.visualizer.canvasVisualizer.networkRouteVisualizer[0] typename "\"inet.visualizer.canvas.networklayer.NetworkRouteCanvasVisualizer\""
par ManetprotocolsShowcaseB.visualizer.canvasVisualizer.networkRouteVisualizer[0] visualizationTargetModule "\"^.^.^\""
par ManetprotocolsShowcaseB.visualizer.canvasVisualizer.networkRouteVisualizer[0] visualizationSubjectModule "\"^.^.^\""
par ManetprotocolsShowcaseB.visualizer.canvasVisualizer.networkRouteVisualizer[0] tags "\"\""
par ManetprotocolsShowcaseB.visualizer.canvasVisualizer.networkRouteVisualizer[0] displayRoutes true
par ManetprotocolsShowcaseB.visualizer.canvasVisualizer.networkRouteVisualizer[0] startPathSignal "\"packetReceivedFromUpper\""
par ManetprotocolsShowcaseB.visualizer.canvasVisualizer.networkRouteVisualizer[0] extendPathSignal "\"packetReceivedFromLower\""
par ManetprotocolsShowcaseB.visualizer.canvasVisualizer.networkRouteVisualizer[0] endPathSignal "\"packetSentToUpper\""
par ManetprotocolsShowcaseB.visualizer.canvasVisualizer.networkRouteVisualizer[0] nodeFilter "\"*\""
attr mutable ""
par ManetprotocolsShowcaseB.visualizer.canvasVisualizer.networkRouteVisualizer[0] packetFilter "(omnetpp::cValueHolder)holder: \"*ping*\""
attr mutable ""
par ManetprotocolsShowcaseB.visualizer.canvasVisualizer.networkRouteVisualizer[0] lineColor "\"dark\""
par ManetprotocolsShowcaseB.visualizer.canvasVisualizer.networkRouteVisualizer[0] lineStyle "\"solid\""
par ManetprotocolsShowcaseB.visualizer.canvasVisualizer.networkRouteVisualizer[0] lineWidth 3
par ManetprotocolsShowcaseB.visualizer.canvasVisualizer.networkRouteVisualizer[0] lineSmooth false
par ManetprotocolsShowcaseB.visualizer.canvasVisualizer.networkRouteVisualizer[0] lineShift 16
par ManetprotocolsShowcaseB.visualizer.canvasVisualizer.networkRouteVisualizer[0] lineShiftMode "\"normal\""
par ManetprotocolsShowcaseB.visualizer.canvasVisualizer.networkRouteVisualizer[0] lineContactSpacing 3
par ManetprotocolsShowcaseB.visualizer.canvasVisualizer.networkRouteVisualizer[0] lineContactMode "\"rectangular\""
attr enum circular,rectangular
par ManetprotocolsShowcaseB.visualizer.canvasVisualizer.networkRouteVisualizer[0] labelFormat "\"%n\""
par ManetprotocolsShowcaseB.visualizer.canvasVisualizer.networkRouteVisualizer[0] labelFont "\"<default>, 8px\""
par ManetprotocolsShowcaseB.visualizer.canvasVisualizer.networkRouteVisualizer[0] labelColor "\"\""
par ManetprotocolsShowcaseB.visualizer.canvasVisualizer.networkRouteVisualizer[0] fadeOutMode "\"realTime\""
attr enum realTime,animationTime,simulationTime
par ManetprotocolsShowcaseB.visualizer.canvasVisualizer.networkRouteVisualizer[0] fadeOutTime 1s
attr unit s
par ManetprotocolsShowcaseB.visualizer.canvasVisualizer.networkRouteVisualizer[0] fadeOutAnimationSpeed 0
par ManetprotocolsShowcaseB.visualizer.canvasVisualizer.networkRouteVisualizer[0] zIndex 3
par ManetprotocolsShowcaseB.visualizer.canvasVisualizer.routingTableVisualizer[0] typename "\"inet.visualizer.canvas.networklayer.RoutingTableCanvasVisualizer\""
par ManetprotocolsShowcaseB.visualizer.canvasVisualizer.routingTableVisualizer[0] visualizationTargetModule "\"^.^.^\""
par ManetprotocolsShowcaseB.visualizer.canvasVisualizer.routingTableVisualizer[0] visualizationSubjectModule "\"^.^.^\""
par ManetprotocolsShowcaseB.visualizer.canvasVisualizer.routingTableVisualizer[0] tags "\"\""
par ManetprotocolsShowcaseB.visualizer.canvasVisualizer.routingTableVisualizer[0] displayRoutingTables true
par ManetprotocolsShowcaseB.visualizer.canvasVisualizer.routingTableVisualizer[0] displayRoutesIndividually false
par ManetprotocolsShowcaseB.visualizer.canvasVisualizer.routingTableVisualizer[0] displayLabels false
par ManetprotocolsShowcaseB.visualizer.canvasVisualizer.routingTableVisualizer[0] destinationFilter "\"destination\""
attr mutable ""
par ManetprotocolsShowcaseB.visualizer.canvasVisualizer.routingTableVisualizer[0] nodeFilter "\"*\""
attr mutable ""
par ManetprotocolsShowcaseB.visualizer.canvasVisualizer.routingTableVisualizer[0] lineColor "\"black\""
par ManetprotocolsShowcaseB.visualizer.canvasVisualizer.routingTableVisualizer[0] lineStyle "\"solid\""
par ManetprotocolsShowcaseB.visualizer.canvasVisualizer.routingTableVisualizer[0] lineWidth 2
par ManetprotocolsShowcaseB.visualizer.canvasVisualizer.routingTableVisualizer[0] lineShift 0
par ManetprotocolsShowcaseB.visualizer.canvasVisualizer.routingTableVisualizer[0] lineShiftMode "\"normal\""
par ManetprotocolsShowcaseB.visualizer.canvasVisualizer.routingTableVisualizer[0] lineContactSpacing 3
par ManetprotocolsShowcaseB.visualizer.canvasVisualizer.routingTableVisualizer[0] lineContactMode "\"rectangular\""
attr enum circular,rectangular
par ManetprotocolsShowcaseB.visualizer.canvasVisualizer.routingTableVisualizer[0] labelFormat "\"%d/%m -> %g (%n)\""
attr mutable ""
par ManetprotocolsShowcaseB.visualizer.canvasVisualizer.routingTableVisualizer[0] labelFont "\"<default>, 8px\""
par ManetprotocolsShowcaseB.visualizer.canvasVisualizer.routingTableVisualizer[0] labelColor "\"black\""
par ManetprotocolsShowcaseB.visualizer.canvasVisualizer.routingTableVisualizer[0] zIndex 0
par ManetprotocolsShowcaseB.visualizer.canvasVisualizer.transportRouteVisualizer[0] typename "\"inet.visualizer.canvas.transportlayer.TransportRouteCanvasVisualizer\""
par ManetprotocolsShowcaseB.visualizer.canvasVisualizer.transportRouteVisualizer[0] visualizationTargetModule "\"^.^.^\""
par ManetprotocolsShowcaseB.visualizer.canvasVisualizer.transportRouteVisualizer[0] visualizationSubjectModule "\"^.^.^\""
par ManetprotocolsShowcaseB.visualizer.canvasVisualizer.transportRouteVisualizer[0] tags "\"\""
par ManetprotocolsShowcaseB.visualizer.canvasVisualizer.transportRouteVisualizer[0] displayRoutes false
par ManetprotocolsShowcaseB.visualizer.canvasVisualizer.transportRouteVisualizer[0] startPathSignal "\"packetReceivedFromUpper\""
par ManetprotocolsShowcaseB.visualizer.canvasVisualizer.transportRouteVisualizer[0] extendPathSignal "\"packetReceivedFromLower\""
par ManetprotocolsShowcaseB.visualizer.canvasVisualizer.transportRouteVisualizer[0] endPathSignal "\"packetSentToUpper\""
par ManetprotocolsShowcaseB.visualizer.canvasVisualizer.transportRouteVisualizer[0] nodeFilter "\"*\""
attr mutable ""
par ManetprotocolsShowcaseB.visualizer.canvasVisualizer.transportRouteVisualizer[0] packetFilter "(omnetpp::cValueHolder)holder: \"*\""
attr mutable ""
par ManetprotocolsShowcaseB.visualizer.canvasVisualizer.transportRouteVisualizer[0] lineColor "\"dark\""
par ManetprotocolsShowcaseB.visualizer.canvasVisualizer.transportRouteVisualizer[0] lineStyle "\"solid\""
par ManetprotocolsShowcaseB.visualizer.canvasVisualizer.transportRouteVisualizer[0] lineWidth 3
par ManetprotocolsShowcaseB.visualizer.canvasVisualizer.transportRouteVisualizer[0] lineSmooth false
par ManetprotocolsShowcaseB.visualizer.canvasVisualizer.transportRouteVisualizer[0] lineShift 16
par ManetprotocolsShowcaseB.visualizer.canvasVisualizer.transportRouteVisualizer[0] lineShiftMode "\"normal\""
par ManetprotocolsShowcaseB.visualizer.canvasVisualizer.transportRouteVisualizer[0] lineContactSpacing 3
par ManetprotocolsShowcaseB.visualizer.canvasVisualizer.transportRouteVisualizer[0] lineContactMode "\"rectangular\""
attr enum circular,rectangular
par ManetprotocolsShowcaseB.visualizer.canvasVisualizer.transportRouteVisualizer[0] labelFormat "\"%n\""
par ManetprotocolsShowcaseB.visualizer.canvasVisualizer.transportRouteVisualizer[0] labelFont "\"<default>, 8px\""
par ManetprotocolsShowcaseB.visualizer.canvasVisualizer.transportRouteVisualizer[0] labelColor "\"\""
par ManetprotocolsShowcaseB.visualizer.canvasVisualizer.transportRouteVisualizer[0] fadeOutMode "\"realTime\""
attr enum realTime,animationTime,simulationTime
par ManetprotocolsShowcaseB.visualizer.canvasVisualizer.transportRouteVisualizer[0] fadeOutTime 1s
attr unit s
par ManetprotocolsShowcaseB.visualizer.canvasVisualizer.transportRouteVisualizer[0] fadeOutAnimationSpeed 0
par ManetprotocolsShowcaseB.visualizer.canvasVisualizer.transportRouteVisualizer[0] zIndex 4
par ManetprotocolsShowcaseB.visualizer.canvasVisualizer.transportConnectionVisualizer[0] typename "\"inet.visualizer.canvas.transportlayer.TransportConnectionCanvasVisualizer\""
par ManetprotocolsShowcaseB.visualizer.canvasVisualizer.transportConnectionVisualizer[0] visualizationTargetModule "\"^.^.^\""
par ManetprotocolsShowcaseB.visualizer.canvasVisualizer.transportConnectionVisualizer[0] visualizationSubjectModule "\"^.^.^\""
par ManetprotocolsShowcaseB.visualizer.canvasVisualizer.transportConnectionVisualizer[0] tags "\"\""
par ManetprotocolsShowcaseB.visualizer.canvasVisualizer.transportConnectionVisualizer[0] networkNodeVisualizerModule "\"ManetprotocolsShowcaseB.visualizer.canvasVisualizer.networkNodeVisualizer[0]\""
par ManetprotocolsShowcaseB.visualizer.canvasVisualizer.transportConnectionVisualizer[0] displayTransportConnections false
par ManetprotocolsShowcaseB.visualizer.canvasVisualizer.transportConnectionVisualizer[0] sourceNodeFilter "\"*\""
attr mutable ""
par ManetprotocolsShowcaseB.visualizer.canvasVisualizer.transportConnectionVisualizer[0] sourcePortFilter "\"*\""
attr mutable ""
par ManetprotocolsShowcaseB.visualizer.canvasVisualizer.transportConnectionVisualizer[0] destinationNodeFilter "\"*\""
attr mutable ""
par ManetprotocolsShowcaseB.visualizer.canvasVisualizer.transportConnectionVisualizer[0] destinationPortFilter "\"*\""
attr mutable ""
par ManetprotocolsShowcaseB.visualizer.canvasVisualizer.transportConnectionVisualizer[0] icon "\"misc/marker_s\""
par ManetprotocolsShowcaseB.visualizer.canvasVisualizer.transportConnectionVisualizer[0] iconColor "\"dark\""
par ManetprotocolsShowcaseB.visualizer.canvasVisualizer.transportConnectionVisualizer[0] labelFont "\"<default>\""
par ManetprotocolsShowcaseB.visualizer.canvasVisualizer.transportConnectionVisualizer[0] labelColor "\"black\""
par ManetprotocolsShowcaseB.visualizer.canvasVisualizer.transportConnectionVisualizer[0] placementHint "\"top\""
par ManetprotocolsShowcaseB.visualizer.canvasVisualizer.transportConnectionVisualizer[0] placementPriority 0
par ManetprotocolsShowcaseB.visualizer.canvasVisualizer.transportConnectionVisualizer[0] zIndex 4
par ManetprotocolsShowcaseB.visualizer.canvasVisualizer.failureProtectionConfigurationVisualizer[0] typename "\"inet.visualizer.canvas.configurator.FailureProtectionConfigurationCanvasVisualizer\""
par ManetprotocolsShowcaseB.visualizer.canvasVisualizer.failureProtectionConfigurationVisualizer[0] visualizationTargetModule "\"^.^.^\""
par ManetprotocolsShowcaseB.visualizer.canvasVisualizer.failureProtectionConfigurationVisualizer[0] visualizationSubjectModule "\"^.^.^\""
par ManetprotocolsShowcaseB.visualizer.canvasVisualizer.failureProtectionConfigurationVisualizer[0] tags "\"\""
par ManetprotocolsShowcaseB.visualizer.canvasVisualizer.failureProtectionConfigurationVisualizer[0] displayTrees false
par ManetprotocolsShowcaseB.visualizer.canvasVisualizer.failureProtectionConfigurationVisualizer[0] lineColor "\"dark\""
par ManetprotocolsShowcaseB.visualizer.canvasVisualizer.failureProtectionConfigurationVisualizer[0] lineStyle "\"solid\""
par ManetprotocolsShowcaseB.visualizer.canvasVisualizer.failureProtectionConfigurationVisualizer[0] lineWidth 3
par ManetprotocolsShowcaseB.visualizer.canvasVisualizer.failureProtectionConfigurationVisualizer[0] lineSmooth false
par ManetprotocolsShowcaseB.visualizer.canvasVisualizer.failureProtectionConfigurationVisualizer[0] lineShift 16
par ManetprotocolsShowcaseB.visualizer.canvasVisualizer.failureProtectionConfigurationVisualizer[0] lineShiftMode "\"normal\""
par ManetprotocolsShowcaseB.visualizer.canvasVisualizer.failureProtectionConfigurationVisualizer[0] lineContactSpacing 3
par ManetprotocolsShowcaseB.visualizer.canvasVisualizer.failureProtectionConfigurationVisualizer[0] lineContactMode "\"rectangular\""
attr enum circular,rectangular
par ManetprotocolsShowcaseB.visualizer.canvasVisualizer.failureProtectionConfigurationVisualizer[0] failureProtectionConfiguratorModule "\"failureProtectionConfigurator\""
par ManetprotocolsShowcaseB.visualizer.canvasVisualizer.failureProtectionConfigurationVisualizer[0] streamFilter "\"*\""
par ManetprotocolsShowcaseB.visualizer.canvasVisualizer.failureProtectionConfigurationVisualizer[0] zIndex 3
par ManetprotocolsShowcaseB.visualizer.canvasVisualizer.streamRedundancyConfigurationVisualizer[0] typename "\"inet.visualizer.canvas.configurator.StreamRedundancyConfigurationCanvasVisualizer\""
par ManetprotocolsShowcaseB.visualizer.canvasVisualizer.streamRedundancyConfigurationVisualizer[0] visualizationTargetModule "\"^.^.^\""
par ManetprotocolsShowcaseB.visualizer.canvasVisualizer.streamRedundancyConfigurationVisualizer[0] visualizationSubjectModule "\"^.^.^\""
par ManetprotocolsShowcaseB.visualizer.canvasVisualizer.streamRedundancyConfigurationVisualizer[0] tags "\"\""
par ManetprotocolsShowcaseB.visualizer.canvasVisualizer.streamRedundancyConfigurationVisualizer[0] displayTrees false
par ManetprotocolsShowcaseB.visualizer.canvasVisualizer.streamRedundancyConfigurationVisualizer[0] lineColor "\"dark\""
par ManetprotocolsShowcaseB.visualizer.canvasVisualizer.streamRedundancyConfigurationVisualizer[0] lineStyle "\"solid\""
par ManetprotocolsShowcaseB.visualizer.canvasVisualizer.streamRedundancyConfigurationVisualizer[0] lineWidth 3
par ManetprotocolsShowcaseB.visualizer.canvasVisualizer.streamRedundancyConfigurationVisualizer[0] lineSmooth false
par ManetprotocolsShowcaseB.visualizer.canvasVisualizer.streamRedundancyConfigurationVisualizer[0] lineShift 16
par ManetprotocolsShowcaseB.visualizer.canvasVisualizer.streamRedundancyConfigurationVisualizer[0] lineShiftMode "\"normal\""
par ManetprotocolsShowcaseB.visualizer.canvasVisualizer.streamRedundancyConfigurationVisualizer[0] lineContactSpacing 3
par ManetprotocolsShowcaseB.visualizer.canvasVisualizer.streamRedundancyConfigurationVisualizer[0] lineContactMode "\"rectangular\""
attr enum circular,rectangular
par ManetprotocolsShowcaseB.visualizer.canvasVisualizer.streamRedundancyConfigurationVisualizer[0] streamRedundancyConfiguratorModule "\"streamRedundancyConfigurator\""
par ManetprotocolsShowcaseB.visualizer.canvasVisualizer.streamRedundancyConfigurationVisualizer[0] streamFilter "\"*\""
par ManetprotocolsShowcaseB.visualizer.canvasVisualizer.streamRedundancyConfigurationVisualizer[0] zIndex 3
par ManetprotocolsShowcaseB.visualizer.canvasVisualizer typename "\"inet.visualizer.canvas.integrated.IntegratedMultiCanvasVisualizer\""
par ManetprotocolsShowcaseB.visualizer.canvasVisualizer numSceneVisualizers 1
par ManetprotocolsShowcaseB.visualizer.canvasVisualizer numPhysicalEnvironmentVisualizers 1
par ManetprotocolsShowcaseB.visualizer.canvasVisualizer numNetworkNodeVisualizers 1
par ManetprotocolsShowcaseB.visualizer.canvasVisualizer numNetworkConnectionVisualizers 1
par ManetprotocolsShowcaseB.visualizer.canvasVisualizer numMobilityVisualizers 1
par ManetprotocolsShowcaseB.visualizer.canvasVisualizer numStatisticVisualizers 1
par ManetprotocolsShowcaseB.visualizer.canvasVisualizer numInfoVisualizers 1
par ManetprotocolsShowcaseB.visualizer.canvasVisualizer numEnergyStorageVisualizers 1
par ManetprotocolsShowcaseB.visualizer.canvasVisualizer numMediumVisualizers 1
par ManetprotocolsShowcaseB.visualizer.canvasVisualizer numObstacleLossVisualizers 1
par ManetprotocolsShowcaseB.visualizer.canvasVisualizer numPacketDropVisualizers 1
par ManetprotocolsShowcaseB.visualizer.canvasVisualizer numQueueVisualizers 1
par ManetprotocolsShowcaseB.visualizer.canvasVisualizer numGateScheduleVisualizers 1
par ManetprotocolsShowcaseB.visualizer.canvasVisualizer numRadioVisualizers 1
par ManetprotocolsShowcaseB.visualizer.canvasVisualizer numPhysicalLinkVisualizers 1
par ManetprotocolsShowcaseB.visualizer.canvasVisualizer numInterfaceTableVisualizers 1
par ManetprotocolsShowcaseB.visualizer.canvasVisualizer numDataLinkVisualizers 5
par ManetprotocolsShowcaseB.visualizer.canvasVisualizer numLinkBreakVisualizers 1
par ManetprotocolsShowcaseB.visualizer.canvasVisualizer numIeee80211Visualizers 1
par ManetprotocolsShowcaseB.visualizer.canvasVisualizer numNetworkRouteVisualizers 1
par ManetprotocolsShowcaseB.visualizer.canvasVisualizer numRoutingTableVisualizers 1
par ManetprotocolsShowcaseB.visualizer.canvasVisualizer numTransportRouteVisualizers 1
par ManetprotocolsShowcaseB.visualizer.canvasVisualizer numTransportConnectionVisualizers 1
par ManetprotocolsShowcaseB.visualizer.canvasVisualizer numFailureProtectionConfigurationVisualizers 1
par ManetprotocolsShowcaseB.visualizer.canvasVisualizer numStreamRedundancyConfigurationVisualizers 1
par ManetprotocolsShowcaseB.visualizer typename "\"inet.visualizer.common.IntegratedMultiVisualizer\""
par ManetprotocolsShowcaseB typename "\"manet2.ManetprotocolsShowcaseB\""

