file 402343 1731918454                                          
version 3
run Aodv-0-20241118-15:27:13-24992
attr configname Aodv
attr datetime 20241118-15:27:13
attr datetimef 20241118-152713
attr experiment Aodv
attr inifile omnetpp.ini
attr iterationvars ""
attr iterationvarsd ""
attr iterationvarsf ""
attr measurement ""
attr network manet2.ManetprotocolsShowcaseB
attr processid 24992
attr repetition 0
attr replication #0
attr resultdir results
attr runnumber 0
attr seedset 0
config image-path ../../inet4.5/images
config extends MobileNodesBase
config sim-time-limit 1000s
config *.*.routingApp.typename Aodv
config *.*.routingApp.activeRouteTimeout 1s
config *.*.routingApp.deletePeriod 0.5s
config *.visualizer.*.routingTableVisualizer[0].displayRoutingTables true
config *.visualizer.*.routingTableVisualizer[0].destinationFilter "\"destination\""
config network manet2.ManetprotocolsShowcaseB
config **.transmitter.power 10mW
config *.node*.mobility.typename inet.mobility.single.RandomWaypointMobility
config *.node*.mobility.initialPositionX "uniform(0m, 2000m)"
config *.node*.mobility.initialPositionY "uniform(0m, 2000m)"
config *.node*.mobility.waitTime "uniform(1s, 5s)"
config *.node*.mobility.speed "uniform(5mps, 15mps)"
config **.constraintAreaMaxX 2000m
config **.constraintAreaMaxY 2000m
config **.constraintAreaMinX 0m
config **.constraintAreaMinY 0m
config **.constraintAreaMinZ 0m
config **.constraintAreaMaxZ 0m
config *.visualizer.*.routingTableVisualizer[0].displayLabels false
config *.visualizer.*.routingTableVisualizer[0].displayRoutesIndividually false
config *.visualizer.*.routingTableVisualizer[0].lineShift 0
config *.visualizer.*.networkRouteVisualizer[0].displayRoutes true
config *.visualizer.*.networkRouteVisualizer[0].packetFilter "\"*ping*\""
config *.visualizer.*.interfaceTableVisualizer[0].displayInterfaceTables true
config *.visualizer.*.interfaceTableVisualizer[0].format "\"%a/%l\""
config *.source1.numApps 1
config *.source2.numApps 1
config *.source3.numApps 1
config *.source4.numApps 1
config *.source5.numApps 1
config *.source1.app[0].typename PingApp
config *.source1.app[0].destAddr "\"destination1\""
config *.source1.app[0].printPing true
config *.source2.app[0].typename PingApp
config *.source2.app[0].destAddr "\"destination2\""
config *.source2.app[0].printPing true
config *.source3.app[0].typename PingApp
config *.source3.app[0].destAddr "\"destination3\""
config *.source3.app[0].printPing true
config *.source4.app[0].typename PingApp
config *.source4.app[0].destAddr "\"destination4\""
config *.source4.app[0].printPing true
config *.source5.app[0].typename PingApp
config *.source5.app[0].destAddr "\"destination5\""
config *.source5.app[0].printPing true
config *.visualizer.*.numDataLinkVisualizers 5
config *.visualizer.*.dataLinkVisualizer[*].activityLevel "\"peer\""
config *.visualizer.*.dataLinkVisualizer[*].displayLinks true
config *.visualizer.*.dataLinkVisualizer[0].packetFilter "\"aodv::Rreq or GPSRBeacon\""
config *.visualizer.*.dataLinkVisualizer[1].packetFilter "\"ping* or UDP*\""
config *.visualizer.*.dataLinkVisualizer[1].*Color "\"blue\""
config *.visualizer.*.dataLinkVisualizer[2].packetFilter "\"aodv::Rrep\""
config *.visualizer.*.dataLinkVisualizer[2].*Color "\"darkslategray\""
config *.visualizer.*.dataLinkVisualizer[3].packetFilter "\"aodv::Rerr\""
config *.visualizer.*.dataLinkVisualizer[3].*Color "\"red\""
config *.visualizer.*.dataLinkVisualizer[4].packetFilter "\"Hello\""
config *.visualizer.*.dataLinkVisualizer[4].*Color "\"green\""
config **.wlan[*].bitrate 11Mbps
config *.configurator.addStaticRoutes false
config **.netmaskRoutes "\"\""
config **.arp.typename GlobalArp
config sim-time-limit 1000s

vector 0 ManetprotocolsShowcaseB.source1.lo[0].lo rcvdPkFromHl:vector(packetBytes) ETV
attr interpolationmode none
attr recordingmode vector(packetBytes)
attr source packetReceivedFromUpper
attr title "packets received from higher layer, packetBytes"
vector 1 ManetprotocolsShowcaseB.source1.lo[0].lo passedUpPk:vector(packetBytes) ETV
attr interpolationmode none
attr recordingmode vector(packetBytes)
attr source packetSentToUpper
attr title "packets passed to higher layer, packetBytes"
vector 2 ManetprotocolsShowcaseB.source1.lo[0] packetDropInterfaceDown:vector(packetBytes) ETV
attr interpolationmode none
attr recordingmode vector(packetBytes)
attr source packetDropReasonIsInterfaceDown(packetDropped)
attr title "packet drops: interface down, packetBytes"
vector 3 ManetprotocolsShowcaseB.source1.lo[0] packetDropNoCarrier:vector(packetBytes) ETV
attr interpolationmode none
attr recordingmode vector(packetBytes)
attr source packetDropReasonIsNoCarrier(packetDropped)
attr title "packet drops: no carrier, packetBytes"
vector 4 ManetprotocolsShowcaseB.source1.wlan[0].mac.dcf.channelAccess.pendingQueue queueLength:vector ETV
attr autoWarmupFilter false
attr interpolationmode sample-hold
attr recordingmode vector
attr source "warmup(atomic(constant0(packetPushEnded) + count(packetPushStarted) - count(packetPulled) - count(packetRemoved) - count(packetDropped)))"
attr title "queue length"
attr unit pk
vector 5 ManetprotocolsShowcaseB.source1.wlan[0].mac.dcf.channelAccess.pendingQueue queueBitLength:vector ETV
attr autoWarmupFilter false
attr interpolationmode sample-hold
attr recordingmode vector
attr source "warmup(atomic(constant0(packetPushEnded) + sum(packetLength(packetPushStarted)) - sum(packetLength(packetPulled)) - sum(packetLength(packetRemoved)) - sum(packetLength(packetDropped))))"
attr title "queue bit length"
attr unit b
vector 6 ManetprotocolsShowcaseB.source1.wlan[0].mac.dcf.channelAccess.pendingQueue queueingTime:vector ETV
attr interpolationmode none
attr recordingmode vector
attr source queueingTime(packetPulled)
attr title "queueing times"
attr unit s
vector 7 ManetprotocolsShowcaseB.source1.wlan[0].mac.dcf.channelAccess.pendingQueue incomingPacketLengths:vector ETV
attr interpolationmode none
attr recordingmode vector
attr source packetLength(packetPushStarted)
attr title "incoming packet lengths"
attr unit b
vector 8 ManetprotocolsShowcaseB.source1.wlan[0].mac.dcf.channelAccess.pendingQueue incomingDataRate:vector ETV
attr interpolationmode linear
attr recordingmode vector
attr source throughput(packetPushStarted)
attr title "incoming datarate"
attr unit bps
vector 9 ManetprotocolsShowcaseB.source1.wlan[0].mac.dcf.channelAccess.pendingQueue outgoingPacketLengths:vector ETV
attr interpolationmode none
attr recordingmode vector
attr source packetLength(packetPulled)
attr title "outgoing packet lengths"
attr unit b
vector 10 ManetprotocolsShowcaseB.source1.wlan[0].mac.dcf.channelAccess.pendingQueue outgoingDataRate:vector ETV
attr interpolationmode linear
attr recordingmode vector
attr source throughput(packetPulled)
attr title "outgoing datarate"
attr unit bps
vector 11 ManetprotocolsShowcaseB.source1.wlan[0].mac.dcf.channelAccess.pendingQueue droppedPacketLengthsQueueOverflow:vector ETV
attr interpolationmode none
attr recordingmode vector
attr source packetLength(packetDropReasonIsQueueOverflow(packetDropped))
attr title "dropped packet lengths: queue overflow"
attr unit b
vector 12 ManetprotocolsShowcaseB.source1.wlan[0].mac.dcf.channelAccess.pendingQueue flowQueueingTime:vector ETV
attr interpolationmode none
attr recordingmode vector
attr source queueingTime(demuxFlow(packetPulled))
attr title "flow queueing times"
attr unit s
vector 13 ManetprotocolsShowcaseB.source1.wlan[0].mac.dcf.channelAccess.pendingQueue flowIncomingDataRate:vector ETV
attr interpolationmode linear
attr recordingmode vector
attr source throughput(flowPacketLength(demuxFlow(packetPushStarted)))
attr title "flow specific incoming data rate"
attr unit bps
vector 14 ManetprotocolsShowcaseB.source1.wlan[0].mac.dcf.channelAccess.pendingQueue flowOutgoingDataRate:vector ETV
attr interpolationmode linear
attr recordingmode vector
attr source throughput(flowPacketLength(demuxFlow(packetPulled)))
attr title "flow specific outgoing data rate"
attr unit bps
vector 15 ManetprotocolsShowcaseB.source1.wlan[0].mac.dcf.channelAccess.inProgressFrames queueingTime:vector ETV
attr interpolationmode none
attr recordingmode vector
attr source queueingTime(packetDequeued)
attr title "queueing times"
vector 16 ManetprotocolsShowcaseB.source1.wlan[0].mac.dcf.channelAccess.inProgressFrames queueLength:vector ETV
attr autoWarmupFilter false
attr interpolationmode sample-hold
attr recordingmode vector
attr source "warmup(count(packetEnqueued) - count(packetDequeued))"
attr title "queue length"
vector 17 ManetprotocolsShowcaseB.source1.wlan[0].mac.dcf.channelAccess.contention backoffPeriodGenerated:vector ETV
attr interpolationmode none
attr recordingmode vector
attr title "backoff periods"
vector 18 ManetprotocolsShowcaseB.source1.wlan[0].mac.dcf.channelAccess.contention backoffActive:vector ETV
attr autoWarmupFilter false
attr interpolationmode sample-hold
attr recordingmode vector
attr source warmup(count(backoffStarted)-count(backoffStopped))
attr title "backoff active"
vector 19 ManetprotocolsShowcaseB.source1.wlan[0].mac.dcf.channelAccess.contention stateChanged:vector ETV
attr enum IDLE,DEFER,IFS_AND_BACKOFF
attr interpolationmode none
attr recordingmode vector
attr title "contention state changed"
attr type enum
vector 20 ManetprotocolsShowcaseB.source1.wlan[0].mac.dcf.recipientMacDataService packetDropDuplicateDetected:vector(packetBytes) ETV
attr interpolationmode none
attr recordingmode vector(packetBytes)
attr source packetDropReasonIsDuplicateDetected(packetDropped)
attr title "packet drops: duplicate detected, packetBytes"
vector 21 ManetprotocolsShowcaseB.source1.wlan[0].mac.dcf.recoveryProcedure contentionWindowChanged:vector ETV
attr interpolationmode sample-hold
attr recordingmode vector
attr title "contention window"
vector 22 ManetprotocolsShowcaseB.source1.wlan[0].mac.dcf packetSentToPeer:vector(packetBytes) ETV
attr interpolationmode none
attr recordingmode vector(packetBytes)
attr title "packets sent, packetBytes"
vector 23 ManetprotocolsShowcaseB.source1.wlan[0].mac.dcf packetSentToPeerUnicast:vector(packetBytes) ETV
attr interpolationmode none
attr recordingmode vector(packetBytes)
attr source ieee80211Unicast(packetSentToPeer)
attr title "packets sent: unicast, packetBytes"
vector 24 ManetprotocolsShowcaseB.source1.wlan[0].mac.dcf packetSentToPeerMulticast:vector(packetBytes) ETV
attr interpolationmode none
attr recordingmode vector(packetBytes)
attr source ieee80211Multicast(packetSentToPeer)
attr title "packets sent: multicast, packetBytes"
vector 25 ManetprotocolsShowcaseB.source1.wlan[0].mac.dcf packetSentToPeerBroadcast:vector(packetBytes) ETV
attr interpolationmode none
attr recordingmode vector(packetBytes)
attr source ieee80211Broadcast(packetSentToPeer)
attr title "packets sent: broadcast , packetBytes"
vector 26 ManetprotocolsShowcaseB.source1.wlan[0].mac.dcf packetSentToPeerWithRetry:vector(packetBytes) ETV
attr interpolationmode none
attr recordingmode vector(packetBytes)
attr source ieee80211Retry(packetSentToPeer)
attr title "packets sent: with retry, packetBytes"
vector 27 ManetprotocolsShowcaseB.source1.wlan[0].mac.dcf packetSentToPeerWithoutRetry:vector(packetBytes) ETV
attr interpolationmode none
attr recordingmode vector(packetBytes)
attr source ieee80211NotRetry(packetSentToPeer)
attr title "packets sent: without retry, packetBytes"
vector 28 ManetprotocolsShowcaseB.source1.wlan[0].mac.dcf packetReceivedFromPeer:vector(packetBytes) ETV
attr interpolationmode none
attr recordingmode vector(packetBytes)
attr title "packets received, packetBytes"
vector 29 ManetprotocolsShowcaseB.source1.wlan[0].mac.dcf packetReceivedFromPeerUnicast:vector(packetBytes) ETV
attr interpolationmode none
attr recordingmode vector(packetBytes)
attr source ieee80211Unicast(packetReceivedFromPeer)
attr title "packets received: unicast, packetBytes"
vector 30 ManetprotocolsShowcaseB.source1.wlan[0].mac.dcf packetReceivedFromPeerMulticast:vector(packetBytes) ETV
attr interpolationmode none
attr recordingmode vector(packetBytes)
attr source ieee80211Multicast(packetReceivedFromPeer)
attr title "packets received: multicast, packetBytes"
vector 31 ManetprotocolsShowcaseB.source1.wlan[0].mac.dcf packetReceivedFromPeerBroadcast:vector(packetBytes) ETV
attr interpolationmode none
attr recordingmode vector(packetBytes)
attr source ieee80211Broadcast(packetReceivedFromPeer)
attr title "packets received: broadcast, packetBytes"
vector 32 ManetprotocolsShowcaseB.source1.wlan[0].mac.dcf packetReceivedFromPeerWithRetry:vector(packetBytes) ETV
attr interpolationmode none
attr recordingmode vector(packetBytes)
attr source ieee80211Retry(packetReceivedFromPeer)
attr title "packets received: with retry, packetBytes"
vector 33 ManetprotocolsShowcaseB.source1.wlan[0].mac.dcf packetReceivedFromPeerWithoutRetry:vector(packetBytes) ETV
attr interpolationmode none
attr recordingmode vector(packetBytes)
attr source ieee80211NotRetry(packetReceivedFromPeer)
attr title "packets received: without retry, packetBytes"
vector 34 ManetprotocolsShowcaseB.source1.wlan[0].mac.dcf packetDrop:vector(packetBytes) ETV
attr interpolationmode none
attr recordingmode vector(packetBytes)
attr source packetDropped
attr title "packet drops, packetBytes"
vector 35 ManetprotocolsShowcaseB.source1.wlan[0].mac.dcf packetDropNotAddressedToUs:vector(packetBytes) ETV
attr interpolationmode none
attr recordingmode vector(packetBytes)
attr source packetDropReasonIsNotAddressedToUs(packetDropped)
attr title "packet drops: not addressed to us, packetBytes"
vector 36 ManetprotocolsShowcaseB.source1.wlan[0].mac.dcf packetDropQueueOverflow:vector(packetBytes) ETV
attr interpolationmode none
attr recordingmode vector(packetBytes)
attr source packetDropReasonIsQueueOverflow(packetDropped)
attr title "packet drops: queue overflow, packetBytes"
vector 37 ManetprotocolsShowcaseB.source1.wlan[0].mac.dcf packetDropRetryLimitReached:vector(packetBytes) ETV
attr interpolationmode none
attr recordingmode vector(packetBytes)
attr source packetDropReasonIsRetryLimitReached(packetDropped)
attr title "packet drops: retry limit reached, packetBytes"
vector 38 ManetprotocolsShowcaseB.source1.wlan[0].mac.dcf frameSequenceActive:vector ETV
attr autoWarmupFilter false
attr interpolationmode sample-hold
attr recordingmode vector
attr source warmup(count(frameSequenceStarted)-count(frameSequenceFinished))
attr title "frame sequence active"
vector 39 ManetprotocolsShowcaseB.source1.wlan[0].mac.dcf datarateSelected:vector ETV
attr interpolationmode none
attr recordingmode vector
attr title "datarates selected"
vector 40 ManetprotocolsShowcaseB.source1.wlan[0].mac.rx nav:vector ETV
attr interpolationmode linear
attr recordingmode vector
attr source navChanged
attr title "network allocation vector"
vector 41 ManetprotocolsShowcaseB.source1.wlan[0].mac packetSentToUpper:vector(packetBytes) ETV
attr interpolationmode none
attr recordingmode vector(packetBytes)
attr title "packets sent to upper layer, packetBytes"
vector 42 ManetprotocolsShowcaseB.source1.wlan[0].mac packetSentToLower:vector(packetBytes) ETV
attr interpolationmode none
attr recordingmode vector(packetBytes)
attr title "packets sent to lower layer, packetBytes"
vector 43 ManetprotocolsShowcaseB.source1.wlan[0].mac packetReceivedFromUpper:vector(packetBytes) ETV
attr interpolationmode none
attr recordingmode vector(packetBytes)
attr title "packets received from upper layer, packetBytes"
vector 44 ManetprotocolsShowcaseB.source1.wlan[0].mac packetReceivedFromLower:vector(packetBytes) ETV
attr interpolationmode none
attr recordingmode vector(packetBytes)
attr title "packets received from lower layer, packetBytes"
vector 45 ManetprotocolsShowcaseB.source1.wlan[0].mac packetDrop:vector(packetBytes) ETV
attr interpolationmode none
attr recordingmode vector(packetBytes)
attr source packetDropped
attr title "packet drops, packetBytes"
vector 46 ManetprotocolsShowcaseB.source1.wlan[0].mac packetDropIncorrectlyReceived:vector(packetBytes) ETV
attr interpolationmode none
attr recordingmode vector(packetBytes)
attr source packetDropReasonIsIncorrectlyReceived(packetDropped)
attr title "packet drops: incorrectly received, packetBytes"
vector 47 ManetprotocolsShowcaseB.source1.wlan[0].mac packetDropNotAddressedToUs:vector(packetBytes) ETV
attr interpolationmode none
attr recordingmode vector(packetBytes)
attr source packetDropReasonIsNotAddressedToUs(packetDropped)
attr title "packet drops: not addressed to us, packetBytes"
vector 48 ManetprotocolsShowcaseB.source1.wlan[0].mac packetDropQueueOverflow:vector(packetBytes) ETV
attr interpolationmode none
attr recordingmode vector(packetBytes)
attr source packetDropReasonIsQueueOverflow(packetDropped)
attr title "packet drops: queue overflow, packetBytes"
vector 49 ManetprotocolsShowcaseB.source1.wlan[0].mac packetDropRetryLimitReached:vector(packetBytes) ETV
attr interpolationmode none
attr recordingmode vector(packetBytes)
attr source packetDropReasonIsRetryLimitReached(packetDropped)
attr title "packet drops: retry limit reached, packetBytes"
vector 50 ManetprotocolsShowcaseB.source1.wlan[0].mac packetDropDuplicateDetected:vector(packetBytes) ETV
attr interpolationmode none
attr recordingmode vector(packetBytes)
attr source packetDropReasonIsDuplicateDetected(packetDropped)
attr title "packet drops: duplicate detected, packetBytes"
vector 51 ManetprotocolsShowcaseB.source1.wlan[0].mac packetDropOther:vector(packetBytes) ETV
attr interpolationmode none
attr recordingmode vector(packetBytes)
attr source packetDropReasonIsOther(packetDropped)
attr title "packet drops: other, packetBytes"
vector 52 ManetprotocolsShowcaseB.source1.wlan[0].radio radioMode:vector ETV
attr interpolationmode sample-hold
attr recordingmode vector
attr source radioModeChanged
attr title "Radio mode"
vector 53 ManetprotocolsShowcaseB.source1.wlan[0].radio receptionState:vector ETV
attr interpolationmode sample-hold
attr recordingmode vector
attr source receptionStateChanged
attr title "Radio reception state"
vector 54 ManetprotocolsShowcaseB.source1.wlan[0].radio transmissionState:vector ETV
attr interpolationmode sample-hold
attr recordingmode vector
attr source transmissionStateChanged
attr title "Radio transmission state"
vector 55 ManetprotocolsShowcaseB.source1.wlan[0].radio radioChannel:vector ETV
attr interpolationmode sample-hold
attr recordingmode vector
attr source radioChannelChanged
attr title "Radio channel"
vector 56 ManetprotocolsShowcaseB.source1.wlan[0] packetDropInterfaceDown:vector(packetBytes) ETV
attr interpolationmode none
attr recordingmode vector(packetBytes)
attr source packetDropReasonIsInterfaceDown(packetDropped)
attr title "packet drops: interface down, packetBytes"
vector 57 ManetprotocolsShowcaseB.source1.wlan[0] packetDropNoCarrier:vector(packetBytes) ETV
attr interpolationmode none
attr recordingmode vector(packetBytes)
attr source packetDropReasonIsNoCarrier(packetDropped)
attr title "packet drops: no carrier, packetBytes"
vector 58 ManetprotocolsShowcaseB.source1.ipv4.ip packetDropAddressResolutionFailed:vector(packetBytes) ETV
attr interpolationmode none
attr recordingmode vector(packetBytes)
attr source packetDropReasonIsAddressResolutionFailed(packetDropped)
attr title "packet drop: address resolution failed, packetBytes"
vector 59 ManetprotocolsShowcaseB.source1.ipv4.ip packetDropHopLimitReached:vector(packetBytes) ETV
attr interpolationmode none
attr recordingmode vector(packetBytes)
attr source packetDropReasonIsHopLimitReached(packetDropped)
attr title "packet drop: hop limit reached, packetBytes"
vector 60 ManetprotocolsShowcaseB.source1.ipv4.ip packetDropForwardingDisabled:vector(packetBytes) ETV
attr interpolationmode none
attr recordingmode vector(packetBytes)
attr source packetDropReasonIsForwardingDisabled(packetDropped)
attr title "packet drop: forwarding disabled, packetBytes"
vector 61 ManetprotocolsShowcaseB.source1.ipv4.ip packetDropNoInterfaceFound:vector(packetBytes) ETV
attr interpolationmode none
attr recordingmode vector(packetBytes)
attr source packetDropReasonIsNoInterfaceFound(packetDropped)
attr title "packet drop: no interface found, packetBytes"
vector 62 ManetprotocolsShowcaseB.source1.ipv4.ip packetDropNoRouteFound:vector(packetBytes) ETV
attr interpolationmode none
attr recordingmode vector(packetBytes)
attr source packetDropReasonIsNoRouteFound(packetDropped)
attr title "packet drop: no route found, packetBytes"
vector 63 ManetprotocolsShowcaseB.source1.ipv4.ip packetDropUndefined:vector(packetBytes) ETV
attr interpolationmode none
attr recordingmode vector(packetBytes)
attr source packetDropReasonIsUndefined(packetDropped)
attr title "packet drop: undefined, packetBytes"
vector 64 ManetprotocolsShowcaseB.source1.udp packetSent:vector(packetBytes) ETV
attr interpolationmode none
attr recordingmode vector(packetBytes)
attr source packetSent
attr title "packets sent, packetBytes"
vector 65 ManetprotocolsShowcaseB.source1.udp packetReceived:vector(packetBytes) ETV
attr interpolationmode none
attr recordingmode vector(packetBytes)
attr source packetReceived
attr title "packets received, packetBytes"
vector 66 ManetprotocolsShowcaseB.source1.udp passedUpPk:vector(count) ETV
attr interpolationmode none
attr recordingmode vector(count)
attr source packetSentToUpper
attr title "packets passed up, count"
vector 67 ManetprotocolsShowcaseB.source1.udp droppedPkWrongPort:vector(count) ETV
attr interpolationmode none
attr recordingmode vector(count)
attr source packetDropReasonIsNoPortFound(packetDropped)
attr title "packets dropped (wrong port), count"
vector 68 ManetprotocolsShowcaseB.source1.udp droppedPkBadChecksum:vector(count) ETV
attr interpolationmode none
attr recordingmode vector(count)
attr source packetDropReasonIsIncorrectlyReceived(packetDropped)
attr title "packets dropped (checksum error), count"
vector 69 ManetprotocolsShowcaseB.source1.app[0] rtt:vector ETV
attr interpolationmode none
attr recordingmode vector
attr title "ping round-trip time"
attr unit s
vector 70 ManetprotocolsShowcaseB.source1.app[0] numLost:vector ETV
attr interpolationmode none
attr recordingmode vector
attr title "pings lost"
vector 71 ManetprotocolsShowcaseB.source1.app[0] numOutOfOrderArrivals:vector ETV
attr interpolationmode none
attr recordingmode vector
attr title "ping out-of-order arrivals"
vector 72 ManetprotocolsShowcaseB.source1.app[0] pingTxSeq:vector ETV
attr interpolationmode none
attr recordingmode vector
attr title "ping tx seq"
vector 73 ManetprotocolsShowcaseB.source1.app[0] pingRxSeq:vector ETV
attr interpolationmode none
attr recordingmode vector
attr title "ping rx seq"
vector 74 ManetprotocolsShowcaseB.source2.lo[0].lo rcvdPkFromHl:vector(packetBytes) ETV
attr interpolationmode none
attr recordingmode vector(packetBytes)
attr source packetReceivedFromUpper
attr title "packets received from higher layer, packetBytes"
vector 75 ManetprotocolsShowcaseB.source2.lo[0].lo passedUpPk:vector(packetBytes) ETV
attr interpolationmode none
attr recordingmode vector(packetBytes)
attr source packetSentToUpper
attr title "packets passed to higher layer, packetBytes"
vector 76 ManetprotocolsShowcaseB.source2.lo[0] packetDropInterfaceDown:vector(packetBytes) ETV
attr interpolationmode none
attr recordingmode vector(packetBytes)
attr source packetDropReasonIsInterfaceDown(packetDropped)
attr title "packet drops: interface down, packetBytes"
vector 77 ManetprotocolsShowcaseB.source2.lo[0] packetDropNoCarrier:vector(packetBytes) ETV
attr interpolationmode none
attr recordingmode vector(packetBytes)
attr source packetDropReasonIsNoCarrier(packetDropped)
attr title "packet drops: no carrier, packetBytes"
vector 78 ManetprotocolsShowcaseB.source2.wlan[0].mac.dcf.channelAccess.pendingQueue queueLength:vector ETV
attr autoWarmupFilter false
attr interpolationmode sample-hold
attr recordingmode vector
attr source "warmup(atomic(constant0(packetPushEnded) + count(packetPushStarted) - count(packetPulled) - count(packetRemoved) - count(packetDropped)))"
attr title "queue length"
attr unit pk
vector 79 ManetprotocolsShowcaseB.source2.wlan[0].mac.dcf.channelAccess.pendingQueue queueBitLength:vector ETV
attr autoWarmupFilter false
attr interpolationmode sample-hold
attr recordingmode vector
attr source "warmup(atomic(constant0(packetPushEnded) + sum(packetLength(packetPushStarted)) - sum(packetLength(packetPulled)) - sum(packetLength(packetRemoved)) - sum(packetLength(packetDropped))))"
attr title "queue bit length"
attr unit b
vector 80 ManetprotocolsShowcaseB.source2.wlan[0].mac.dcf.channelAccess.pendingQueue queueingTime:vector ETV
attr interpolationmode none
attr recordingmode vector
attr source queueingTime(packetPulled)
attr title "queueing times"
attr unit s
vector 81 ManetprotocolsShowcaseB.source2.wlan[0].mac.dcf.channelAccess.pendingQueue incomingPacketLengths:vector ETV
attr interpolationmode none
attr recordingmode vector
attr source packetLength(packetPushStarted)
attr title "incoming packet lengths"
attr unit b
vector 82 ManetprotocolsShowcaseB.source2.wlan[0].mac.dcf.channelAccess.pendingQueue incomingDataRate:vector ETV
attr interpolationmode linear
attr recordingmode vector
attr source throughput(packetPushStarted)
attr title "incoming datarate"
attr unit bps
vector 83 ManetprotocolsShowcaseB.source2.wlan[0].mac.dcf.channelAccess.pendingQueue outgoingPacketLengths:vector ETV
attr interpolationmode none
attr recordingmode vector
attr source packetLength(packetPulled)
attr title "outgoing packet lengths"
attr unit b
vector 84 ManetprotocolsShowcaseB.source2.wlan[0].mac.dcf.channelAccess.pendingQueue outgoingDataRate:vector ETV
attr interpolationmode linear
attr recordingmode vector
attr source throughput(packetPulled)
attr title "outgoing datarate"
attr unit bps
vector 85 ManetprotocolsShowcaseB.source2.wlan[0].mac.dcf.channelAccess.pendingQueue droppedPacketLengthsQueueOverflow:vector ETV
attr interpolationmode none
attr recordingmode vector
attr source packetLength(packetDropReasonIsQueueOverflow(packetDropped))
attr title "dropped packet lengths: queue overflow"
attr unit b
vector 86 ManetprotocolsShowcaseB.source2.wlan[0].mac.dcf.channelAccess.pendingQueue flowQueueingTime:vector ETV
attr interpolationmode none
attr recordingmode vector
attr source queueingTime(demuxFlow(packetPulled))
attr title "flow queueing times"
attr unit s
vector 87 ManetprotocolsShowcaseB.source2.wlan[0].mac.dcf.channelAccess.pendingQueue flowIncomingDataRate:vector ETV
attr interpolationmode linear
attr recordingmode vector
attr source throughput(flowPacketLength(demuxFlow(packetPushStarted)))
attr title "flow specific incoming data rate"
attr unit bps
vector 88 ManetprotocolsShowcaseB.source2.wlan[0].mac.dcf.channelAccess.pendingQueue flowOutgoingDataRate:vector ETV
attr interpolationmode linear
attr recordingmode vector
attr source throughput(flowPacketLength(demuxFlow(packetPulled)))
attr title "flow specific outgoing data rate"
attr unit bps
vector 89 ManetprotocolsShowcaseB.source2.wlan[0].mac.dcf.channelAccess.inProgressFrames queueingTime:vector ETV
attr interpolationmode none
attr recordingmode vector
attr source queueingTime(packetDequeued)
attr title "queueing times"
vector 90 ManetprotocolsShowcaseB.source2.wlan[0].mac.dcf.channelAccess.inProgressFrames queueLength:vector ETV
attr autoWarmupFilter false
attr interpolationmode sample-hold
attr recordingmode vector
attr source "warmup(count(packetEnqueued) - count(packetDequeued))"
attr title "queue length"
vector 91 ManetprotocolsShowcaseB.source2.wlan[0].mac.dcf.channelAccess.contention backoffPeriodGenerated:vector ETV
attr interpolationmode none
attr recordingmode vector
attr title "backoff periods"
vector 92 ManetprotocolsShowcaseB.source2.wlan[0].mac.dcf.channelAccess.contention backoffActive:vector ETV
attr autoWarmupFilter false
attr interpolationmode sample-hold
attr recordingmode vector
attr source warmup(count(backoffStarted)-count(backoffStopped))
attr title "backoff active"
vector 93 ManetprotocolsShowcaseB.source2.wlan[0].mac.dcf.channelAccess.contention stateChanged:vector ETV
attr enum IDLE,DEFER,IFS_AND_BACKOFF
attr interpolationmode none
attr recordingmode vector
attr title "contention state changed"
attr type enum
vector 94 ManetprotocolsShowcaseB.source2.wlan[0].mac.dcf.recipientMacDataService packetDropDuplicateDetected:vector(packetBytes) ETV
attr interpolationmode none
attr recordingmode vector(packetBytes)
attr source packetDropReasonIsDuplicateDetected(packetDropped)
attr title "packet drops: duplicate detected, packetBytes"
vector 95 ManetprotocolsShowcaseB.source2.wlan[0].mac.dcf.recoveryProcedure contentionWindowChanged:vector ETV
attr interpolationmode sample-hold
attr recordingmode vector
attr title "contention window"
vector 96 ManetprotocolsShowcaseB.source2.wlan[0].mac.dcf packetSentToPeer:vector(packetBytes) ETV
attr interpolationmode none
attr recordingmode vector(packetBytes)
attr title "packets sent, packetBytes"
vector 97 ManetprotocolsShowcaseB.source2.wlan[0].mac.dcf packetSentToPeerUnicast:vector(packetBytes) ETV
attr interpolationmode none
attr recordingmode vector(packetBytes)
attr source ieee80211Unicast(packetSentToPeer)
attr title "packets sent: unicast, packetBytes"
vector 98 ManetprotocolsShowcaseB.source2.wlan[0].mac.dcf packetSentToPeerMulticast:vector(packetBytes) ETV
attr interpolationmode none
attr recordingmode vector(packetBytes)
attr source ieee80211Multicast(packetSentToPeer)
attr title "packets sent: multicast, packetBytes"
vector 99 ManetprotocolsShowcaseB.source2.wlan[0].mac.dcf packetSentToPeerBroadcast:vector(packetBytes) ETV
attr interpolationmode none
attr recordingmode vector(packetBytes)
attr source ieee80211Broadcast(packetSentToPeer)
attr title "packets sent: broadcast , packetBytes"
vector 100 ManetprotocolsShowcaseB.source2.wlan[0].mac.dcf packetSentToPeerWithRetry:vector(packetBytes) ETV
attr interpolationmode none
attr recordingmode vector(packetBytes)
attr source ieee80211Retry(packetSentToPeer)
attr title "packets sent: with retry, packetBytes"
vector 101 ManetprotocolsShowcaseB.source2.wlan[0].mac.dcf packetSentToPeerWithoutRetry:vector(packetBytes) ETV
attr interpolationmode none
attr recordingmode vector(packetBytes)
attr source ieee80211NotRetry(packetSentToPeer)
attr title "packets sent: without retry, packetBytes"
vector 102 ManetprotocolsShowcaseB.source2.wlan[0].mac.dcf packetReceivedFromPeer:vector(packetBytes) ETV
attr interpolationmode none
attr recordingmode vector(packetBytes)
attr title "packets received, packetBytes"
vector 103 ManetprotocolsShowcaseB.source2.wlan[0].mac.dcf packetReceivedFromPeerUnicast:vector(packetBytes) ETV
attr interpolationmode none
attr recordingmode vector(packetBytes)
attr source ieee80211Unicast(packetReceivedFromPeer)
attr title "packets received: unicast, packetBytes"
vector 104 ManetprotocolsShowcaseB.source2.wlan[0].mac.dcf packetReceivedFromPeerMulticast:vector(packetBytes) ETV
attr interpolationmode none
attr recordingmode vector(packetBytes)
attr source ieee80211Multicast(packetReceivedFromPeer)
attr title "packets received: multicast, packetBytes"
vector 105 ManetprotocolsShowcaseB.source2.wlan[0].mac.dcf packetReceivedFromPeerBroadcast:vector(packetBytes) ETV
attr interpolationmode none
attr recordingmode vector(packetBytes)
attr source ieee80211Broadcast(packetReceivedFromPeer)
attr title "packets received: broadcast, packetBytes"
vector 106 ManetprotocolsShowcaseB.source2.wlan[0].mac.dcf packetReceivedFromPeerWithRetry:vector(packetBytes) ETV
attr interpolationmode none
attr recordingmode vector(packetBytes)
attr source ieee80211Retry(packetReceivedFromPeer)
attr title "packets received: with retry, packetBytes"
vector 107 ManetprotocolsShowcaseB.source2.wlan[0].mac.dcf packetReceivedFromPeerWithoutRetry:vector(packetBytes) ETV
attr interpolationmode none
attr recordingmode vector(packetBytes)
attr source ieee80211NotRetry(packetReceivedFromPeer)
attr title "packets received: without retry, packetBytes"
vector 108 ManetprotocolsShowcaseB.source2.wlan[0].mac.dcf packetDrop:vector(packetBytes) ETV
attr interpolationmode none
attr recordingmode vector(packetBytes)
attr source packetDropped
attr title "packet drops, packetBytes"
vector 109 ManetprotocolsShowcaseB.source2.wlan[0].mac.dcf packetDropNotAddressedToUs:vector(packetBytes) ETV
attr interpolationmode none
attr recordingmode vector(packetBytes)
attr source packetDropReasonIsNotAddressedToUs(packetDropped)
attr title "packet drops: not addressed to us, packetBytes"
vector 110 ManetprotocolsShowcaseB.source2.wlan[0].mac.dcf packetDropQueueOverflow:vector(packetBytes) ETV
attr interpolationmode none
attr recordingmode vector(packetBytes)
attr source packetDropReasonIsQueueOverflow(packetDropped)
attr title "packet drops: queue overflow, packetBytes"
vector 111 ManetprotocolsShowcaseB.source2.wlan[0].mac.dcf packetDropRetryLimitReached:vector(packetBytes) ETV
attr interpolationmode none
attr recordingmode vector(packetBytes)
attr source packetDropReasonIsRetryLimitReached(packetDropped)
attr title "packet drops: retry limit reached, packetBytes"
vector 112 ManetprotocolsShowcaseB.source2.wlan[0].mac.dcf frameSequenceActive:vector ETV
attr autoWarmupFilter false
attr interpolationmode sample-hold
attr recordingmode vector
attr source warmup(count(frameSequenceStarted)-count(frameSequenceFinished))
attr title "frame sequence active"
vector 113 ManetprotocolsShowcaseB.source2.wlan[0].mac.dcf datarateSelected:vector ETV
attr interpolationmode none
attr recordingmode vector
attr title "datarates selected"
vector 114 ManetprotocolsShowcaseB.source2.wlan[0].mac.rx nav:vector ETV
attr interpolationmode linear
attr recordingmode vector
attr source navChanged
attr title "network allocation vector"
vector 115 ManetprotocolsShowcaseB.source2.wlan[0].mac packetSentToUpper:vector(packetBytes) ETV
attr interpolationmode none
attr recordingmode vector(packetBytes)
attr title "packets sent to upper layer, packetBytes"
vector 116 ManetprotocolsShowcaseB.source2.wlan[0].mac packetSentToLower:vector(packetBytes) ETV
attr interpolationmode none
attr recordingmode vector(packetBytes)
attr title "packets sent to lower layer, packetBytes"
vector 117 ManetprotocolsShowcaseB.source2.wlan[0].mac packetReceivedFromUpper:vector(packetBytes) ETV
attr interpolationmode none
attr recordingmode vector(packetBytes)
attr title "packets received from upper layer, packetBytes"
vector 118 ManetprotocolsShowcaseB.source2.wlan[0].mac packetReceivedFromLower:vector(packetBytes) ETV
attr interpolationmode none
attr recordingmode vector(packetBytes)
attr title "packets received from lower layer, packetBytes"
vector 119 ManetprotocolsShowcaseB.source2.wlan[0].mac packetDrop:vector(packetBytes) ETV
attr interpolationmode none
attr recordingmode vector(packetBytes)
attr source packetDropped
attr title "packet drops, packetBytes"
vector 120 ManetprotocolsShowcaseB.source2.wlan[0].mac packetDropIncorrectlyReceived:vector(packetBytes) ETV
attr interpolationmode none
attr recordingmode vector(packetBytes)
attr source packetDropReasonIsIncorrectlyReceived(packetDropped)
attr title "packet drops: incorrectly received, packetBytes"
vector 121 ManetprotocolsShowcaseB.source2.wlan[0].mac packetDropNotAddressedToUs:vector(packetBytes) ETV
attr interpolationmode none
attr recordingmode vector(packetBytes)
attr source packetDropReasonIsNotAddressedToUs(packetDropped)
attr title "packet drops: not addressed to us, packetBytes"
vector 122 ManetprotocolsShowcaseB.source2.wlan[0].mac packetDropQueueOverflow:vector(packetBytes) ETV
attr interpolationmode none
attr recordingmode vector(packetBytes)
attr source packetDropReasonIsQueueOverflow(packetDropped)
attr title "packet drops: queue overflow, packetBytes"
vector 123 ManetprotocolsShowcaseB.source2.wlan[0].mac packetDropRetryLimitReached:vector(packetBytes) ETV
attr interpolationmode none
attr recordingmode vector(packetBytes)
attr source packetDropReasonIsRetryLimitReached(packetDropped)
attr title "packet drops: retry limit reached, packetBytes"
vector 124 ManetprotocolsShowcaseB.source2.wlan[0].mac packetDropDuplicateDetected:vector(packetBytes) ETV
attr interpolationmode none
attr recordingmode vector(packetBytes)
attr source packetDropReasonIsDuplicateDetected(packetDropped)
attr title "packet drops: duplicate detected, packetBytes"
vector 125 ManetprotocolsShowcaseB.source2.wlan[0].mac packetDropOther:vector(packetBytes) ETV
attr interpolationmode none
attr recordingmode vector(packetBytes)
attr source packetDropReasonIsOther(packetDropped)
attr title "packet drops: other, packetBytes"
vector 126 ManetprotocolsShowcaseB.source2.wlan[0].radio radioMode:vector ETV
attr interpolationmode sample-hold
attr recordingmode vector
attr source radioModeChanged
attr title "Radio mode"
vector 127 ManetprotocolsShowcaseB.source2.wlan[0].radio receptionState:vector ETV
attr interpolationmode sample-hold
attr recordingmode vector
attr source receptionStateChanged
attr title "Radio reception state"
vector 128 ManetprotocolsShowcaseB.source2.wlan[0].radio transmissionState:vector ETV
attr interpolationmode sample-hold
attr recordingmode vector
attr source transmissionStateChanged
attr title "Radio transmission state"
vector 129 ManetprotocolsShowcaseB.source2.wlan[0].radio radioChannel:vector ETV
attr interpolationmode sample-hold
attr recordingmode vector
attr source radioChannelChanged
attr title "Radio channel"
vector 130 ManetprotocolsShowcaseB.source2.wlan[0] packetDropInterfaceDown:vector(packetBytes) ETV
attr interpolationmode none
attr recordingmode vector(packetBytes)
attr source packetDropReasonIsInterfaceDown(packetDropped)
attr title "packet drops: interface down, packetBytes"
vector 131 ManetprotocolsShowcaseB.source2.wlan[0] packetDropNoCarrier:vector(packetBytes) ETV
attr interpolationmode none
attr recordingmode vector(packetBytes)
attr source packetDropReasonIsNoCarrier(packetDropped)
attr title "packet drops: no carrier, packetBytes"
vector 132 ManetprotocolsShowcaseB.source2.ipv4.ip packetDropAddressResolutionFailed:vector(packetBytes) ETV
attr interpolationmode none
attr recordingmode vector(packetBytes)
attr source packetDropReasonIsAddressResolutionFailed(packetDropped)
attr title "packet drop: address resolution failed, packetBytes"
vector 133 ManetprotocolsShowcaseB.source2.ipv4.ip packetDropHopLimitReached:vector(packetBytes) ETV
attr interpolationmode none
attr recordingmode vector(packetBytes)
attr source packetDropReasonIsHopLimitReached(packetDropped)
attr title "packet drop: hop limit reached, packetBytes"
vector 134 ManetprotocolsShowcaseB.source2.ipv4.ip packetDropForwardingDisabled:vector(packetBytes) ETV
attr interpolationmode none
attr recordingmode vector(packetBytes)
attr source packetDropReasonIsForwardingDisabled(packetDropped)
attr title "packet drop: forwarding disabled, packetBytes"
vector 135 ManetprotocolsShowcaseB.source2.ipv4.ip packetDropNoInterfaceFound:vector(packetBytes) ETV
attr interpolationmode none
attr recordingmode vector(packetBytes)
attr source packetDropReasonIsNoInterfaceFound(packetDropped)
attr title "packet drop: no interface found, packetBytes"
vector 136 ManetprotocolsShowcaseB.source2.ipv4.ip packetDropNoRouteFound:vector(packetBytes) ETV
attr interpolationmode none
attr recordingmode vector(packetBytes)
attr source packetDropReasonIsNoRouteFound(packetDropped)
attr title "packet drop: no route found, packetBytes"
vector 137 ManetprotocolsShowcaseB.source2.ipv4.ip packetDropUndefined:vector(packetBytes) ETV
attr interpolationmode none
attr recordingmode vector(packetBytes)
attr source packetDropReasonIsUndefined(packetDropped)
attr title "packet drop: undefined, packetBytes"
vector 138 ManetprotocolsShowcaseB.source2.udp packetSent:vector(packetBytes) ETV
attr interpolationmode none
attr recordingmode vector(packetBytes)
attr source packetSent
attr title "packets sent, packetBytes"
vector 139 ManetprotocolsShowcaseB.source2.udp packetReceived:vector(packetBytes) ETV
attr interpolationmode none
attr recordingmode vector(packetBytes)
attr source packetReceived
attr title "packets received, packetBytes"
vector 140 ManetprotocolsShowcaseB.source2.udp passedUpPk:vector(count) ETV
attr interpolationmode none
attr recordingmode vector(count)
attr source packetSentToUpper
attr title "packets passed up, count"
vector 141 ManetprotocolsShowcaseB.source2.udp droppedPkWrongPort:vector(count) ETV
attr interpolationmode none
attr recordingmode vector(count)
attr source packetDropReasonIsNoPortFound(packetDropped)
attr title "packets dropped (wrong port), count"
vector 142 ManetprotocolsShowcaseB.source2.udp droppedPkBadChecksum:vector(count) ETV
attr interpolationmode none
attr recordingmode vector(count)
attr source packetDropReasonIsIncorrectlyReceived(packetDropped)
attr title "packets dropped (checksum error), count"
vector 143 ManetprotocolsShowcaseB.source2.app[0] rtt:vector ETV
attr interpolationmode none
attr recordingmode vector
attr title "ping round-trip time"
attr unit s
vector 144 ManetprotocolsShowcaseB.source2.app[0] numLost:vector ETV
attr interpolationmode none
attr recordingmode vector
attr title "pings lost"
vector 145 ManetprotocolsShowcaseB.source2.app[0] numOutOfOrderArrivals:vector ETV
attr interpolationmode none
attr recordingmode vector
attr title "ping out-of-order arrivals"
vector 146 ManetprotocolsShowcaseB.source2.app[0] pingTxSeq:vector ETV
attr interpolationmode none
attr recordingmode vector
attr title "ping tx seq"
vector 147 ManetprotocolsShowcaseB.source2.app[0] pingRxSeq:vector ETV
attr interpolationmode none
attr recordingmode vector
attr title "ping rx seq"
vector 148 ManetprotocolsShowcaseB.source3.lo[0].lo rcvdPkFromHl:vector(packetBytes) ETV
attr interpolationmode none
attr recordingmode vector(packetBytes)
attr source packetReceivedFromUpper
attr title "packets received from higher layer, packetBytes"
vector 149 ManetprotocolsShowcaseB.source3.lo[0].lo passedUpPk:vector(packetBytes) ETV
attr interpolationmode none
attr recordingmode vector(packetBytes)
attr source packetSentToUpper
attr title "packets passed to higher layer, packetBytes"
vector 150 ManetprotocolsShowcaseB.source3.lo[0] packetDropInterfaceDown:vector(packetBytes) ETV
attr interpolationmode none
attr recordingmode vector(packetBytes)
attr source packetDropReasonIsInterfaceDown(packetDropped)
attr title "packet drops: interface down, packetBytes"
vector 151 ManetprotocolsShowcaseB.source3.lo[0] packetDropNoCarrier:vector(packetBytes) ETV
attr interpolationmode none
attr recordingmode vector(packetBytes)
attr source packetDropReasonIsNoCarrier(packetDropped)
attr title "packet drops: no carrier, packetBytes"
vector 152 ManetprotocolsShowcaseB.source3.wlan[0].mac.dcf.channelAccess.pendingQueue queueLength:vector ETV
attr autoWarmupFilter false
attr interpolationmode sample-hold
attr recordingmode vector
attr source "warmup(atomic(constant0(packetPushEnded) + count(packetPushStarted) - count(packetPulled) - count(packetRemoved) - count(packetDropped)))"
attr title "queue length"
attr unit pk
vector 153 ManetprotocolsShowcaseB.source3.wlan[0].mac.dcf.channelAccess.pendingQueue queueBitLength:vector ETV
attr autoWarmupFilter false
attr interpolationmode sample-hold
attr recordingmode vector
attr source "warmup(atomic(constant0(packetPushEnded) + sum(packetLength(packetPushStarted)) - sum(packetLength(packetPulled)) - sum(packetLength(packetRemoved)) - sum(packetLength(packetDropped))))"
attr title "queue bit length"
attr unit b
vector 154 ManetprotocolsShowcaseB.source3.wlan[0].mac.dcf.channelAccess.pendingQueue queueingTime:vector ETV
attr interpolationmode none
attr recordingmode vector
attr source queueingTime(packetPulled)
attr title "queueing times"
attr unit s
vector 155 ManetprotocolsShowcaseB.source3.wlan[0].mac.dcf.channelAccess.pendingQueue incomingPacketLengths:vector ETV
attr interpolationmode none
attr recordingmode vector
attr source packetLength(packetPushStarted)
attr title "incoming packet lengths"
attr unit b
vector 156 ManetprotocolsShowcaseB.source3.wlan[0].mac.dcf.channelAccess.pendingQueue incomingDataRate:vector ETV
attr interpolationmode linear
attr recordingmode vector
attr source throughput(packetPushStarted)
attr title "incoming datarate"
attr unit bps
vector 157 ManetprotocolsShowcaseB.source3.wlan[0].mac.dcf.channelAccess.pendingQueue outgoingPacketLengths:vector ETV
attr interpolationmode none
attr recordingmode vector
attr source packetLength(packetPulled)
attr title "outgoing packet lengths"
attr unit b
vector 158 ManetprotocolsShowcaseB.source3.wlan[0].mac.dcf.channelAccess.pendingQueue outgoingDataRate:vector ETV
attr interpolationmode linear
attr recordingmode vector
attr source throughput(packetPulled)
attr title "outgoing datarate"
attr unit bps
vector 159 ManetprotocolsShowcaseB.source3.wlan[0].mac.dcf.channelAccess.pendingQueue droppedPacketLengthsQueueOverflow:vector ETV
attr interpolationmode none
attr recordingmode vector
attr source packetLength(packetDropReasonIsQueueOverflow(packetDropped))
attr title "dropped packet lengths: queue overflow"
attr unit b
vector 160 ManetprotocolsShowcaseB.source3.wlan[0].mac.dcf.channelAccess.pendingQueue flowQueueingTime:vector ETV
attr interpolationmode none
attr recordingmode vector
attr source queueingTime(demuxFlow(packetPulled))
attr title "flow queueing times"
attr unit s
vector 161 ManetprotocolsShowcaseB.source3.wlan[0].mac.dcf.channelAccess.pendingQueue flowIncomingDataRate:vector ETV
attr interpolationmode linear
attr recordingmode vector
attr source throughput(flowPacketLength(demuxFlow(packetPushStarted)))
attr title "flow specific incoming data rate"
attr unit bps
vector 162 ManetprotocolsShowcaseB.source3.wlan[0].mac.dcf.channelAccess.pendingQueue flowOutgoingDataRate:vector ETV
attr interpolationmode linear
attr recordingmode vector
attr source throughput(flowPacketLength(demuxFlow(packetPulled)))
attr title "flow specific outgoing data rate"
attr unit bps
vector 163 ManetprotocolsShowcaseB.source3.wlan[0].mac.dcf.channelAccess.inProgressFrames queueingTime:vector ETV
attr interpolationmode none
attr recordingmode vector
attr source queueingTime(packetDequeued)
attr title "queueing times"
vector 164 ManetprotocolsShowcaseB.source3.wlan[0].mac.dcf.channelAccess.inProgressFrames queueLength:vector ETV
attr autoWarmupFilter false
attr interpolationmode sample-hold
attr recordingmode vector
attr source "warmup(count(packetEnqueued) - count(packetDequeued))"
attr title "queue length"
vector 165 ManetprotocolsShowcaseB.source3.wlan[0].mac.dcf.channelAccess.contention backoffPeriodGenerated:vector ETV
attr interpolationmode none
attr recordingmode vector
attr title "backoff periods"
vector 166 ManetprotocolsShowcaseB.source3.wlan[0].mac.dcf.channelAccess.contention backoffActive:vector ETV
attr autoWarmupFilter false
attr interpolationmode sample-hold
attr recordingmode vector
attr source warmup(count(backoffStarted)-count(backoffStopped))
attr title "backoff active"
vector 167 ManetprotocolsShowcaseB.source3.wlan[0].mac.dcf.channelAccess.contention stateChanged:vector ETV
attr enum IDLE,DEFER,IFS_AND_BACKOFF
attr interpolationmode none
attr recordingmode vector
attr title "contention state changed"
attr type enum
vector 168 ManetprotocolsShowcaseB.source3.wlan[0].mac.dcf.recipientMacDataService packetDropDuplicateDetected:vector(packetBytes) ETV
attr interpolationmode none
attr recordingmode vector(packetBytes)
attr source packetDropReasonIsDuplicateDetected(packetDropped)
attr title "packet drops: duplicate detected, packetBytes"
vector 169 ManetprotocolsShowcaseB.source3.wlan[0].mac.dcf.recoveryProcedure contentionWindowChanged:vector ETV
attr interpolationmode sample-hold
attr recordingmode vector
attr title "contention window"
vector 170 ManetprotocolsShowcaseB.source3.wlan[0].mac.dcf packetSentToPeer:vector(packetBytes) ETV
attr interpolationmode none
attr recordingmode vector(packetBytes)
attr title "packets sent, packetBytes"
vector 171 ManetprotocolsShowcaseB.source3.wlan[0].mac.dcf packetSentToPeerUnicast:vector(packetBytes) ETV
attr interpolationmode none
attr recordingmode vector(packetBytes)
attr source ieee80211Unicast(packetSentToPeer)
attr title "packets sent: unicast, packetBytes"
vector 172 ManetprotocolsShowcaseB.source3.wlan[0].mac.dcf packetSentToPeerMulticast:vector(packetBytes) ETV
attr interpolationmode none
attr recordingmode vector(packetBytes)
attr source ieee80211Multicast(packetSentToPeer)
attr title "packets sent: multicast, packetBytes"
vector 173 ManetprotocolsShowcaseB.source3.wlan[0].mac.dcf packetSentToPeerBroadcast:vector(packetBytes) ETV
attr interpolationmode none
attr recordingmode vector(packetBytes)
attr source ieee80211Broadcast(packetSentToPeer)
attr title "packets sent: broadcast , packetBytes"
vector 174 ManetprotocolsShowcaseB.source3.wlan[0].mac.dcf packetSentToPeerWithRetry:vector(packetBytes) ETV
attr interpolationmode none
attr recordingmode vector(packetBytes)
attr source ieee80211Retry(packetSentToPeer)
attr title "packets sent: with retry, packetBytes"
vector 175 ManetprotocolsShowcaseB.source3.wlan[0].mac.dcf packetSentToPeerWithoutRetry:vector(packetBytes) ETV
attr interpolationmode none
attr recordingmode vector(packetBytes)
attr source ieee80211NotRetry(packetSentToPeer)
attr title "packets sent: without retry, packetBytes"
vector 176 ManetprotocolsShowcaseB.source3.wlan[0].mac.dcf packetReceivedFromPeer:vector(packetBytes) ETV
attr interpolationmode none
attr recordingmode vector(packetBytes)
attr title "packets received, packetBytes"
vector 177 ManetprotocolsShowcaseB.source3.wlan[0].mac.dcf packetReceivedFromPeerUnicast:vector(packetBytes) ETV
attr interpolationmode none
attr recordingmode vector(packetBytes)
attr source ieee80211Unicast(packetReceivedFromPeer)
attr title "packets received: unicast, packetBytes"
vector 178 ManetprotocolsShowcaseB.source3.wlan[0].mac.dcf packetReceivedFromPeerMulticast:vector(packetBytes) ETV
attr interpolationmode none
attr recordingmode vector(packetBytes)
attr source ieee80211Multicast(packetReceivedFromPeer)
attr title "packets received: multicast, packetBytes"
vector 179 ManetprotocolsShowcaseB.source3.wlan[0].mac.dcf packetReceivedFromPeerBroadcast:vector(packetBytes) ETV
attr interpolationmode none
attr recordingmode vector(packetBytes)
attr source ieee80211Broadcast(packetReceivedFromPeer)
attr title "packets received: broadcast, packetBytes"
vector 180 ManetprotocolsShowcaseB.source3.wlan[0].mac.dcf packetReceivedFromPeerWithRetry:vector(packetBytes) ETV
attr interpolationmode none
attr recordingmode vector(packetBytes)
attr source ieee80211Retry(packetReceivedFromPeer)
attr title "packets received: with retry, packetBytes"
vector 181 ManetprotocolsShowcaseB.source3.wlan[0].mac.dcf packetReceivedFromPeerWithoutRetry:vector(packetBytes) ETV
attr interpolationmode none
attr recordingmode vector(packetBytes)
attr source ieee80211NotRetry(packetReceivedFromPeer)
attr title "packets received: without retry, packetBytes"
vector 182 ManetprotocolsShowcaseB.source3.wlan[0].mac.dcf packetDrop:vector(packetBytes) ETV
attr interpolationmode none
attr recordingmode vector(packetBytes)
attr source packetDropped
attr title "packet drops, packetBytes"
vector 183 ManetprotocolsShowcaseB.source3.wlan[0].mac.dcf packetDropNotAddressedToUs:vector(packetBytes) ETV
attr interpolationmode none
attr recordingmode vector(packetBytes)
attr source packetDropReasonIsNotAddressedToUs(packetDropped)
attr title "packet drops: not addressed to us, packetBytes"
vector 184 ManetprotocolsShowcaseB.source3.wlan[0].mac.dcf packetDropQueueOverflow:vector(packetBytes) ETV
attr interpolationmode none
attr recordingmode vector(packetBytes)
attr source packetDropReasonIsQueueOverflow(packetDropped)
attr title "packet drops: queue overflow, packetBytes"
vector 185 ManetprotocolsShowcaseB.source3.wlan[0].mac.dcf packetDropRetryLimitReached:vector(packetBytes) ETV
attr interpolationmode none
attr recordingmode vector(packetBytes)
attr source packetDropReasonIsRetryLimitReached(packetDropped)
attr title "packet drops: retry limit reached, packetBytes"
vector 186 ManetprotocolsShowcaseB.source3.wlan[0].mac.dcf frameSequenceActive:vector ETV
attr autoWarmupFilter false
attr interpolationmode sample-hold
attr recordingmode vector
attr source warmup(count(frameSequenceStarted)-count(frameSequenceFinished))
attr title "frame sequence active"
vector 187 ManetprotocolsShowcaseB.source3.wlan[0].mac.dcf datarateSelected:vector ETV
attr interpolationmode none
attr recordingmode vector
attr title "datarates selected"
vector 188 ManetprotocolsShowcaseB.source3.wlan[0].mac.rx nav:vector ETV
attr interpolationmode linear
attr recordingmode vector
attr source navChanged
attr title "network allocation vector"
vector 189 ManetprotocolsShowcaseB.source3.wlan[0].mac packetSentToUpper:vector(packetBytes) ETV
attr interpolationmode none
attr recordingmode vector(packetBytes)
attr title "packets sent to upper layer, packetBytes"
vector 190 ManetprotocolsShowcaseB.source3.wlan[0].mac packetSentToLower:vector(packetBytes) ETV
attr interpolationmode none
attr recordingmode vector(packetBytes)
attr title "packets sent to lower layer, packetBytes"
vector 191 ManetprotocolsShowcaseB.source3.wlan[0].mac packetReceivedFromUpper:vector(packetBytes) ETV
attr interpolationmode none
attr recordingmode vector(packetBytes)
attr title "packets received from upper layer, packetBytes"
vector 192 ManetprotocolsShowcaseB.source3.wlan[0].mac packetReceivedFromLower:vector(packetBytes) ETV
attr interpolationmode none
attr recordingmode vector(packetBytes)
attr title "packets received from lower layer, packetBytes"
vector 193 ManetprotocolsShowcaseB.source3.wlan[0].mac packetDrop:vector(packetBytes) ETV
attr interpolationmode none
attr recordingmode vector(packetBytes)
attr source packetDropped
attr title "packet drops, packetBytes"
vector 194 ManetprotocolsShowcaseB.source3.wlan[0].mac packetDropIncorrectlyReceived:vector(packetBytes) ETV
attr interpolationmode none
attr recordingmode vector(packetBytes)
attr source packetDropReasonIsIncorrectlyReceived(packetDropped)
attr title "packet drops: incorrectly received, packetBytes"
vector 195 ManetprotocolsShowcaseB.source3.wlan[0].mac packetDropNotAddressedToUs:vector(packetBytes) ETV
attr interpolationmode none
attr recordingmode vector(packetBytes)
attr source packetDropReasonIsNotAddressedToUs(packetDropped)
attr title "packet drops: not addressed to us, packetBytes"
vector 196 ManetprotocolsShowcaseB.source3.wlan[0].mac packetDropQueueOverflow:vector(packetBytes) ETV
attr interpolationmode none
attr recordingmode vector(packetBytes)
attr source packetDropReasonIsQueueOverflow(packetDropped)
attr title "packet drops: queue overflow, packetBytes"
vector 197 ManetprotocolsShowcaseB.source3.wlan[0].mac packetDropRetryLimitReached:vector(packetBytes) ETV
attr interpolationmode none
attr recordingmode vector(packetBytes)
attr source packetDropReasonIsRetryLimitReached(packetDropped)
attr title "packet drops: retry limit reached, packetBytes"
vector 198 ManetprotocolsShowcaseB.source3.wlan[0].mac packetDropDuplicateDetected:vector(packetBytes) ETV
attr interpolationmode none
attr recordingmode vector(packetBytes)
attr source packetDropReasonIsDuplicateDetected(packetDropped)
attr title "packet drops: duplicate detected, packetBytes"
vector 199 ManetprotocolsShowcaseB.source3.wlan[0].mac packetDropOther:vector(packetBytes) ETV
attr interpolationmode none
attr recordingmode vector(packetBytes)
attr source packetDropReasonIsOther(packetDropped)
attr title "packet drops: other, packetBytes"
vector 200 ManetprotocolsShowcaseB.source3.wlan[0].radio radioMode:vector ETV
attr interpolationmode sample-hold
attr recordingmode vector
attr source radioModeChanged
attr title "Radio mode"
vector 201 ManetprotocolsShowcaseB.source3.wlan[0].radio receptionState:vector ETV
attr interpolationmode sample-hold
attr recordingmode vector
attr source receptionStateChanged
attr title "Radio reception state"
vector 202 ManetprotocolsShowcaseB.source3.wlan[0].radio transmissionState:vector ETV
attr interpolationmode sample-hold
attr recordingmode vector
attr source transmissionStateChanged
attr title "Radio transmission state"
vector 203 ManetprotocolsShowcaseB.source3.wlan[0].radio radioChannel:vector ETV
attr interpolationmode sample-hold
attr recordingmode vector
attr source radioChannelChanged
attr title "Radio channel"
vector 204 ManetprotocolsShowcaseB.source3.wlan[0] packetDropInterfaceDown:vector(packetBytes) ETV
attr interpolationmode none
attr recordingmode vector(packetBytes)
attr source packetDropReasonIsInterfaceDown(packetDropped)
attr title "packet drops: interface down, packetBytes"
vector 205 ManetprotocolsShowcaseB.source3.wlan[0] packetDropNoCarrier:vector(packetBytes) ETV
attr interpolationmode none
attr recordingmode vector(packetBytes)
attr source packetDropReasonIsNoCarrier(packetDropped)
attr title "packet drops: no carrier, packetBytes"
vector 206 ManetprotocolsShowcaseB.source3.ipv4.ip packetDropAddressResolutionFailed:vector(packetBytes) ETV
attr interpolationmode none
attr recordingmode vector(packetBytes)
attr source packetDropReasonIsAddressResolutionFailed(packetDropped)
attr title "packet drop: address resolution failed, packetBytes"
vector 207 ManetprotocolsShowcaseB.source3.ipv4.ip packetDropHopLimitReached:vector(packetBytes) ETV
attr interpolationmode none
attr recordingmode vector(packetBytes)
attr source packetDropReasonIsHopLimitReached(packetDropped)
attr title "packet drop: hop limit reached, packetBytes"
vector 208 ManetprotocolsShowcaseB.source3.ipv4.ip packetDropForwardingDisabled:vector(packetBytes) ETV
attr interpolationmode none
attr recordingmode vector(packetBytes)
attr source packetDropReasonIsForwardingDisabled(packetDropped)
attr title "packet drop: forwarding disabled, packetBytes"
vector 209 ManetprotocolsShowcaseB.source3.ipv4.ip packetDropNoInterfaceFound:vector(packetBytes) ETV
attr interpolationmode none
attr recordingmode vector(packetBytes)
attr source packetDropReasonIsNoInterfaceFound(packetDropped)
attr title "packet drop: no interface found, packetBytes"
vector 210 ManetprotocolsShowcaseB.source3.ipv4.ip packetDropNoRouteFound:vector(packetBytes) ETV
attr interpolationmode none
attr recordingmode vector(packetBytes)
attr source packetDropReasonIsNoRouteFound(packetDropped)
attr title "packet drop: no route found, packetBytes"
vector 211 ManetprotocolsShowcaseB.source3.ipv4.ip packetDropUndefined:vector(packetBytes) ETV
attr interpolationmode none
attr recordingmode vector(packetBytes)
attr source packetDropReasonIsUndefined(packetDropped)
attr title "packet drop: undefined, packetBytes"
vector 212 ManetprotocolsShowcaseB.source3.udp packetSent:vector(packetBytes) ETV
attr interpolationmode none
attr recordingmode vector(packetBytes)
attr source packetSent
attr title "packets sent, packetBytes"
vector 213 ManetprotocolsShowcaseB.source3.udp packetReceived:vector(packetBytes) ETV
attr interpolationmode none
attr recordingmode vector(packetBytes)
attr source packetReceived
attr title "packets received, packetBytes"
vector 214 ManetprotocolsShowcaseB.source3.udp passedUpPk:vector(count) ETV
attr interpolationmode none
attr recordingmode vector(count)
attr source packetSentToUpper
attr title "packets passed up, count"
vector 215 ManetprotocolsShowcaseB.source3.udp droppedPkWrongPort:vector(count) ETV
attr interpolationmode none
attr recordingmode vector(count)
attr source packetDropReasonIsNoPortFound(packetDropped)
attr title "packets dropped (wrong port), count"
vector 216 ManetprotocolsShowcaseB.source3.udp droppedPkBadChecksum:vector(count) ETV
attr interpolationmode none
attr recordingmode vector(count)
attr source packetDropReasonIsIncorrectlyReceived(packetDropped)
attr title "packets dropped (checksum error), count"
vector 217 ManetprotocolsShowcaseB.source3.app[0] rtt:vector ETV
attr interpolationmode none
attr recordingmode vector
attr title "ping round-trip time"
attr unit s
vector 218 ManetprotocolsShowcaseB.source3.app[0] numLost:vector ETV
attr interpolationmode none
attr recordingmode vector
attr title "pings lost"
vector 219 ManetprotocolsShowcaseB.source3.app[0] numOutOfOrderArrivals:vector ETV
attr interpolationmode none
attr recordingmode vector
attr title "ping out-of-order arrivals"
vector 220 ManetprotocolsShowcaseB.source3.app[0] pingTxSeq:vector ETV
attr interpolationmode none
attr recordingmode vector
attr title "ping tx seq"
vector 221 ManetprotocolsShowcaseB.source3.app[0] pingRxSeq:vector ETV
attr interpolationmode none
attr recordingmode vector
attr title "ping rx seq"
vector 222 ManetprotocolsShowcaseB.source4.lo[0].lo rcvdPkFromHl:vector(packetBytes) ETV
attr interpolationmode none
attr recordingmode vector(packetBytes)
attr source packetReceivedFromUpper
attr title "packets received from higher layer, packetBytes"
vector 223 ManetprotocolsShowcaseB.source4.lo[0].lo passedUpPk:vector(packetBytes) ETV
attr interpolationmode none
attr recordingmode vector(packetBytes)
attr source packetSentToUpper
attr title "packets passed to higher layer, packetBytes"
vector 224 ManetprotocolsShowcaseB.source4.lo[0] packetDropInterfaceDown:vector(packetBytes) ETV
attr interpolationmode none
attr recordingmode vector(packetBytes)
attr source packetDropReasonIsInterfaceDown(packetDropped)
attr title "packet drops: interface down, packetBytes"
vector 225 ManetprotocolsShowcaseB.source4.lo[0] packetDropNoCarrier:vector(packetBytes) ETV
attr interpolationmode none
attr recordingmode vector(packetBytes)
attr source packetDropReasonIsNoCarrier(packetDropped)
attr title "packet drops: no carrier, packetBytes"
vector 226 ManetprotocolsShowcaseB.source4.wlan[0].mac.dcf.channelAccess.pendingQueue queueLength:vector ETV
attr autoWarmupFilter false
attr interpolationmode sample-hold
attr recordingmode vector
attr source "warmup(atomic(constant0(packetPushEnded) + count(packetPushStarted) - count(packetPulled) - count(packetRemoved) - count(packetDropped)))"
attr title "queue length"
attr unit pk
vector 227 ManetprotocolsShowcaseB.source4.wlan[0].mac.dcf.channelAccess.pendingQueue queueBitLength:vector ETV
attr autoWarmupFilter false
attr interpolationmode sample-hold
attr recordingmode vector
attr source "warmup(atomic(constant0(packetPushEnded) + sum(packetLength(packetPushStarted)) - sum(packetLength(packetPulled)) - sum(packetLength(packetRemoved)) - sum(packetLength(packetDropped))))"
attr title "queue bit length"
attr unit b
vector 228 ManetprotocolsShowcaseB.source4.wlan[0].mac.dcf.channelAccess.pendingQueue queueingTime:vector ETV
attr interpolationmode none
attr recordingmode vector
attr source queueingTime(packetPulled)
attr title "queueing times"
attr unit s
vector 229 ManetprotocolsShowcaseB.source4.wlan[0].mac.dcf.channelAccess.pendingQueue incomingPacketLengths:vector ETV
attr interpolationmode none
attr recordingmode vector
attr source packetLength(packetPushStarted)
attr title "incoming packet lengths"
attr unit b
vector 230 ManetprotocolsShowcaseB.source4.wlan[0].mac.dcf.channelAccess.pendingQueue incomingDataRate:vector ETV
attr interpolationmode linear
attr recordingmode vector
attr source throughput(packetPushStarted)
attr title "incoming datarate"
attr unit bps
vector 231 ManetprotocolsShowcaseB.source4.wlan[0].mac.dcf.channelAccess.pendingQueue outgoingPacketLengths:vector ETV
attr interpolationmode none
attr recordingmode vector
attr source packetLength(packetPulled)
attr title "outgoing packet lengths"
attr unit b
vector 232 ManetprotocolsShowcaseB.source4.wlan[0].mac.dcf.channelAccess.pendingQueue outgoingDataRate:vector ETV
attr interpolationmode linear
attr recordingmode vector
attr source throughput(packetPulled)
attr title "outgoing datarate"
attr unit bps
vector 233 ManetprotocolsShowcaseB.source4.wlan[0].mac.dcf.channelAccess.pendingQueue droppedPacketLengthsQueueOverflow:vector ETV
attr interpolationmode none
attr recordingmode vector
attr source packetLength(packetDropReasonIsQueueOverflow(packetDropped))
attr title "dropped packet lengths: queue overflow"
attr unit b
vector 234 ManetprotocolsShowcaseB.source4.wlan[0].mac.dcf.channelAccess.pendingQueue flowQueueingTime:vector ETV
attr interpolationmode none
attr recordingmode vector
attr source queueingTime(demuxFlow(packetPulled))
attr title "flow queueing times"
attr unit s
vector 235 ManetprotocolsShowcaseB.source4.wlan[0].mac.dcf.channelAccess.pendingQueue flowIncomingDataRate:vector ETV
attr interpolationmode linear
attr recordingmode vector
attr source throughput(flowPacketLength(demuxFlow(packetPushStarted)))
attr title "flow specific incoming data rate"
attr unit bps
vector 236 ManetprotocolsShowcaseB.source4.wlan[0].mac.dcf.channelAccess.pendingQueue flowOutgoingDataRate:vector ETV
attr interpolationmode linear
attr recordingmode vector
attr source throughput(flowPacketLength(demuxFlow(packetPulled)))
attr title "flow specific outgoing data rate"
attr unit bps
vector 237 ManetprotocolsShowcaseB.source4.wlan[0].mac.dcf.channelAccess.inProgressFrames queueingTime:vector ETV
attr interpolationmode none
attr recordingmode vector
attr source queueingTime(packetDequeued)
attr title "queueing times"
vector 238 ManetprotocolsShowcaseB.source4.wlan[0].mac.dcf.channelAccess.inProgressFrames queueLength:vector ETV
attr autoWarmupFilter false
attr interpolationmode sample-hold
attr recordingmode vector
attr source "warmup(count(packetEnqueued) - count(packetDequeued))"
attr title "queue length"
vector 239 ManetprotocolsShowcaseB.source4.wlan[0].mac.dcf.channelAccess.contention backoffPeriodGenerated:vector ETV
attr interpolationmode none
attr recordingmode vector
attr title "backoff periods"
vector 240 ManetprotocolsShowcaseB.source4.wlan[0].mac.dcf.channelAccess.contention backoffActive:vector ETV
attr autoWarmupFilter false
attr interpolationmode sample-hold
attr recordingmode vector
attr source warmup(count(backoffStarted)-count(backoffStopped))
attr title "backoff active"
vector 241 ManetprotocolsShowcaseB.source4.wlan[0].mac.dcf.channelAccess.contention stateChanged:vector ETV
attr enum IDLE,DEFER,IFS_AND_BACKOFF
attr interpolationmode none
attr recordingmode vector
attr title "contention state changed"
attr type enum
vector 242 ManetprotocolsShowcaseB.source4.wlan[0].mac.dcf.recipientMacDataService packetDropDuplicateDetected:vector(packetBytes) ETV
attr interpolationmode none
attr recordingmode vector(packetBytes)
attr source packetDropReasonIsDuplicateDetected(packetDropped)
attr title "packet drops: duplicate detected, packetBytes"
vector 243 ManetprotocolsShowcaseB.source4.wlan[0].mac.dcf.recoveryProcedure contentionWindowChanged:vector ETV
attr interpolationmode sample-hold
attr recordingmode vector
attr title "contention window"
vector 244 ManetprotocolsShowcaseB.source4.wlan[0].mac.dcf packetSentToPeer:vector(packetBytes) ETV
attr interpolationmode none
attr recordingmode vector(packetBytes)
attr title "packets sent, packetBytes"
vector 245 ManetprotocolsShowcaseB.source4.wlan[0].mac.dcf packetSentToPeerUnicast:vector(packetBytes) ETV
attr interpolationmode none
attr recordingmode vector(packetBytes)
attr source ieee80211Unicast(packetSentToPeer)
attr title "packets sent: unicast, packetBytes"
vector 246 ManetprotocolsShowcaseB.source4.wlan[0].mac.dcf packetSentToPeerMulticast:vector(packetBytes) ETV
attr interpolationmode none
attr recordingmode vector(packetBytes)
attr source ieee80211Multicast(packetSentToPeer)
attr title "packets sent: multicast, packetBytes"
vector 247 ManetprotocolsShowcaseB.source4.wlan[0].mac.dcf packetSentToPeerBroadcast:vector(packetBytes) ETV
attr interpolationmode none
attr recordingmode vector(packetBytes)
attr source ieee80211Broadcast(packetSentToPeer)
attr title "packets sent: broadcast , packetBytes"
vector 248 ManetprotocolsShowcaseB.source4.wlan[0].mac.dcf packetSentToPeerWithRetry:vector(packetBytes) ETV
attr interpolationmode none
attr recordingmode vector(packetBytes)
attr source ieee80211Retry(packetSentToPeer)
attr title "packets sent: with retry, packetBytes"
vector 249 ManetprotocolsShowcaseB.source4.wlan[0].mac.dcf packetSentToPeerWithoutRetry:vector(packetBytes) ETV
attr interpolationmode none
attr recordingmode vector(packetBytes)
attr source ieee80211NotRetry(packetSentToPeer)
attr title "packets sent: without retry, packetBytes"
vector 250 ManetprotocolsShowcaseB.source4.wlan[0].mac.dcf packetReceivedFromPeer:vector(packetBytes) ETV
attr interpolationmode none
attr recordingmode vector(packetBytes)
attr title "packets received, packetBytes"
vector 251 ManetprotocolsShowcaseB.source4.wlan[0].mac.dcf packetReceivedFromPeerUnicast:vector(packetBytes) ETV
attr interpolationmode none
attr recordingmode vector(packetBytes)
attr source ieee80211Unicast(packetReceivedFromPeer)
attr title "packets received: unicast, packetBytes"
vector 252 ManetprotocolsShowcaseB.source4.wlan[0].mac.dcf packetReceivedFromPeerMulticast:vector(packetBytes) ETV
attr interpolationmode none
attr recordingmode vector(packetBytes)
attr source ieee80211Multicast(packetReceivedFromPeer)
attr title "packets received: multicast, packetBytes"
vector 253 ManetprotocolsShowcaseB.source4.wlan[0].mac.dcf packetReceivedFromPeerBroadcast:vector(packetBytes) ETV
attr interpolationmode none
attr recordingmode vector(packetBytes)
attr source ieee80211Broadcast(packetReceivedFromPeer)
attr title "packets received: broadcast, packetBytes"
vector 254 ManetprotocolsShowcaseB.source4.wlan[0].mac.dcf packetReceivedFromPeerWithRetry:vector(packetBytes) ETV
attr interpolationmode none
attr recordingmode vector(packetBytes)
attr source ieee80211Retry(packetReceivedFromPeer)
attr title "packets received: with retry, packetBytes"
vector 255 ManetprotocolsShowcaseB.source4.wlan[0].mac.dcf packetReceivedFromPeerWithoutRetry:vector(packetBytes) ETV
attr interpolationmode none
attr recordingmode vector(packetBytes)
attr source ieee80211NotRetry(packetReceivedFromPeer)
attr title "packets received: without retry, packetBytes"
vector 256 ManetprotocolsShowcaseB.source4.wlan[0].mac.dcf packetDrop:vector(packetBytes) ETV
attr interpolationmode none
attr recordingmode vector(packetBytes)
attr source packetDropped
attr title "packet drops, packetBytes"
vector 257 ManetprotocolsShowcaseB.source4.wlan[0].mac.dcf packetDropNotAddressedToUs:vector(packetBytes) ETV
attr interpolationmode none
attr recordingmode vector(packetBytes)
attr source packetDropReasonIsNotAddressedToUs(packetDropped)
attr title "packet drops: not addressed to us, packetBytes"
vector 258 ManetprotocolsShowcaseB.source4.wlan[0].mac.dcf packetDropQueueOverflow:vector(packetBytes) ETV
attr interpolationmode none
attr recordingmode vector(packetBytes)
attr source packetDropReasonIsQueueOverflow(packetDropped)
attr title "packet drops: queue overflow, packetBytes"
vector 259 ManetprotocolsShowcaseB.source4.wlan[0].mac.dcf packetDropRetryLimitReached:vector(packetBytes) ETV
attr interpolationmode none
attr recordingmode vector(packetBytes)
attr source packetDropReasonIsRetryLimitReached(packetDropped)
attr title "packet drops: retry limit reached, packetBytes"
vector 260 ManetprotocolsShowcaseB.source4.wlan[0].mac.dcf frameSequenceActive:vector ETV
attr autoWarmupFilter false
attr interpolationmode sample-hold
attr recordingmode vector
attr source warmup(count(frameSequenceStarted)-count(frameSequenceFinished))
attr title "frame sequence active"
vector 261 ManetprotocolsShowcaseB.source4.wlan[0].mac.dcf datarateSelected:vector ETV
attr interpolationmode none
attr recordingmode vector
attr title "datarates selected"
vector 262 ManetprotocolsShowcaseB.source4.wlan[0].mac.rx nav:vector ETV
attr interpolationmode linear
attr recordingmode vector
attr source navChanged
attr title "network allocation vector"
vector 263 ManetprotocolsShowcaseB.source4.wlan[0].mac packetSentToUpper:vector(packetBytes) ETV
attr interpolationmode none
attr recordingmode vector(packetBytes)
attr title "packets sent to upper layer, packetBytes"
vector 264 ManetprotocolsShowcaseB.source4.wlan[0].mac packetSentToLower:vector(packetBytes) ETV
attr interpolationmode none
attr recordingmode vector(packetBytes)
attr title "packets sent to lower layer, packetBytes"
vector 265 ManetprotocolsShowcaseB.source4.wlan[0].mac packetReceivedFromUpper:vector(packetBytes) ETV
attr interpolationmode none
attr recordingmode vector(packetBytes)
attr title "packets received from upper layer, packetBytes"
vector 266 ManetprotocolsShowcaseB.source4.wlan[0].mac packetReceivedFromLower:vector(packetBytes) ETV
attr interpolationmode none
attr recordingmode vector(packetBytes)
attr title "packets received from lower layer, packetBytes"
vector 267 ManetprotocolsShowcaseB.source4.wlan[0].mac packetDrop:vector(packetBytes) ETV
attr interpolationmode none
attr recordingmode vector(packetBytes)
attr source packetDropped
attr title "packet drops, packetBytes"
vector 268 ManetprotocolsShowcaseB.source4.wlan[0].mac packetDropIncorrectlyReceived:vector(packetBytes) ETV
attr interpolationmode none
attr recordingmode vector(packetBytes)
attr source packetDropReasonIsIncorrectlyReceived(packetDropped)
attr title "packet drops: incorrectly received, packetBytes"
vector 269 ManetprotocolsShowcaseB.source4.wlan[0].mac packetDropNotAddressedToUs:vector(packetBytes) ETV
attr interpolationmode none
attr recordingmode vector(packetBytes)
attr source packetDropReasonIsNotAddressedToUs(packetDropped)
attr title "packet drops: not addressed to us, packetBytes"
vector 270 ManetprotocolsShowcaseB.source4.wlan[0].mac packetDropQueueOverflow:vector(packetBytes) ETV
attr interpolationmode none
attr recordingmode vector(packetBytes)
attr source packetDropReasonIsQueueOverflow(packetDropped)
attr title "packet drops: queue overflow, packetBytes"
vector 271 ManetprotocolsShowcaseB.source4.wlan[0].mac packetDropRetryLimitReached:vector(packetBytes) ETV
attr interpolationmode none
attr recordingmode vector(packetBytes)
attr source packetDropReasonIsRetryLimitReached(packetDropped)
attr title "packet drops: retry limit reached, packetBytes"
vector 272 ManetprotocolsShowcaseB.source4.wlan[0].mac packetDropDuplicateDetected:vector(packetBytes) ETV
attr interpolationmode none
attr recordingmode vector(packetBytes)
attr source packetDropReasonIsDuplicateDetected(packetDropped)
attr title "packet drops: duplicate detected, packetBytes"
vector 273 ManetprotocolsShowcaseB.source4.wlan[0].mac packetDropOther:vector(packetBytes) ETV
attr interpolationmode none
attr recordingmode vector(packetBytes)
attr source packetDropReasonIsOther(packetDropped)
attr title "packet drops: other, packetBytes"
vector 274 ManetprotocolsShowcaseB.source4.wlan[0].radio radioMode:vector ETV
attr interpolationmode sample-hold
attr recordingmode vector
attr source radioModeChanged
attr title "Radio mode"
vector 275 ManetprotocolsShowcaseB.source4.wlan[0].radio receptionState:vector ETV
attr interpolationmode sample-hold
attr recordingmode vector
attr source receptionStateChanged
attr title "Radio reception state"
vector 276 ManetprotocolsShowcaseB.source4.wlan[0].radio transmissionState:vector ETV
attr interpolationmode sample-hold
attr recordingmode vector
attr source transmissionStateChanged
attr title "Radio transmission state"
vector 277 ManetprotocolsShowcaseB.source4.wlan[0].radio radioChannel:vector ETV
attr interpolationmode sample-hold
attr recordingmode vector
attr source radioChannelChanged
attr title "Radio channel"
vector 278 ManetprotocolsShowcaseB.source4.wlan[0] packetDropInterfaceDown:vector(packetBytes) ETV
attr interpolationmode none
attr recordingmode vector(packetBytes)
attr source packetDropReasonIsInterfaceDown(packetDropped)
attr title "packet drops: interface down, packetBytes"
vector 279 ManetprotocolsShowcaseB.source4.wlan[0] packetDropNoCarrier:vector(packetBytes) ETV
attr interpolationmode none
attr recordingmode vector(packetBytes)
attr source packetDropReasonIsNoCarrier(packetDropped)
attr title "packet drops: no carrier, packetBytes"
vector 280 ManetprotocolsShowcaseB.source4.ipv4.ip packetDropAddressResolutionFailed:vector(packetBytes) ETV
attr interpolationmode none
attr recordingmode vector(packetBytes)
attr source packetDropReasonIsAddressResolutionFailed(packetDropped)
attr title "packet drop: address resolution failed, packetBytes"
vector 281 ManetprotocolsShowcaseB.source4.ipv4.ip packetDropHopLimitReached:vector(packetBytes) ETV
attr interpolationmode none
attr recordingmode vector(packetBytes)
attr source packetDropReasonIsHopLimitReached(packetDropped)
attr title "packet drop: hop limit reached, packetBytes"
vector 282 ManetprotocolsShowcaseB.source4.ipv4.ip packetDropForwardingDisabled:vector(packetBytes) ETV
attr interpolationmode none
attr recordingmode vector(packetBytes)
attr source packetDropReasonIsForwardingDisabled(packetDropped)
attr title "packet drop: forwarding disabled, packetBytes"
vector 283 ManetprotocolsShowcaseB.source4.ipv4.ip packetDropNoInterfaceFound:vector(packetBytes) ETV
attr interpolationmode none
attr recordingmode vector(packetBytes)
attr source packetDropReasonIsNoInterfaceFound(packetDropped)
attr title "packet drop: no interface found, packetBytes"
vector 284 ManetprotocolsShowcaseB.source4.ipv4.ip packetDropNoRouteFound:vector(packetBytes) ETV
attr interpolationmode none
attr recordingmode vector(packetBytes)
attr source packetDropReasonIsNoRouteFound(packetDropped)
attr title "packet drop: no route found, packetBytes"
vector 285 ManetprotocolsShowcaseB.source4.ipv4.ip packetDropUndefined:vector(packetBytes) ETV
attr interpolationmode none
attr recordingmode vector(packetBytes)
attr source packetDropReasonIsUndefined(packetDropped)
attr title "packet drop: undefined, packetBytes"
vector 286 ManetprotocolsShowcaseB.source4.udp packetSent:vector(packetBytes) ETV
attr interpolationmode none
attr recordingmode vector(packetBytes)
attr source packetSent
attr title "packets sent, packetBytes"
vector 287 ManetprotocolsShowcaseB.source4.udp packetReceived:vector(packetBytes) ETV
attr interpolationmode none
attr recordingmode vector(packetBytes)
attr source packetReceived
attr title "packets received, packetBytes"
vector 288 ManetprotocolsShowcaseB.source4.udp passedUpPk:vector(count) ETV
attr interpolationmode none
attr recordingmode vector(count)
attr source packetSentToUpper
attr title "packets passed up, count"
vector 289 ManetprotocolsShowcaseB.source4.udp droppedPkWrongPort:vector(count) ETV
attr interpolationmode none
attr recordingmode vector(count)
attr source packetDropReasonIsNoPortFound(packetDropped)
attr title "packets dropped (wrong port), count"
vector 290 ManetprotocolsShowcaseB.source4.udp droppedPkBadChecksum:vector(count) ETV
attr interpolationmode none
attr recordingmode vector(count)
attr source packetDropReasonIsIncorrectlyReceived(packetDropped)
attr title "packets dropped (checksum error), count"
vector 291 ManetprotocolsShowcaseB.source4.app[0] rtt:vector ETV
attr interpolationmode none
attr recordingmode vector
attr title "ping round-trip time"
attr unit s
vector 292 ManetprotocolsShowcaseB.source4.app[0] numLost:vector ETV
attr interpolationmode none
attr recordingmode vector
attr title "pings lost"
vector 293 ManetprotocolsShowcaseB.source4.app[0] numOutOfOrderArrivals:vector ETV
attr interpolationmode none
attr recordingmode vector
attr title "ping out-of-order arrivals"
vector 294 ManetprotocolsShowcaseB.source4.app[0] pingTxSeq:vector ETV
attr interpolationmode none
attr recordingmode vector
attr title "ping tx seq"
vector 295 ManetprotocolsShowcaseB.source4.app[0] pingRxSeq:vector ETV
attr interpolationmode none
attr recordingmode vector
attr title "ping rx seq"
vector 296 ManetprotocolsShowcaseB.source5.lo[0].lo rcvdPkFromHl:vector(packetBytes) ETV
attr interpolationmode none
attr recordingmode vector(packetBytes)
[...]
229	383674 27 48 48 0.061507722072 0.061507722072 1 704 704 704 495616
231	383701 27 50 50 0.061507722072 0.061507722072 1 704 704 704 495616
237	383728 32 72 72 0.061763722072 0.061763722072 1 0.000256 0.000256 0.000256 6.5536e-08
238	383760 72 0 72 0 0.061763722072 4 0 1 1 1
239	383832 25 48 48 0.061507722072 0.061507722072 1 4 4 4 16
240	383857 72 0 49 0 0.061507722072 4 0 1 1 1
241	383929 430 0 313 0 0.063289182155 18 0 2 4 8
243	384359 12 0 0 0 0 1 31 31 31 961
244	384371 26 72 72 0.061763722072 0.061763722072 1 88 88 88 7744
246	384397 26 72 72 0.061763722072 0.061763722072 1 88 88 88 7744
247	384423 26 72 72 0.061763722072 0.061763722072 1 88 88 88 7744
249	384449 26 72 72 0.061763722072 0.061763722072 1 88 88 88 7744
250	384475 54 192 314 0.062827563121 0.063289182155 2 88 88 176 15488
252	384529 54 192 314 0.062827563121 0.063289182155 2 88 88 176 15488
253	384583 54 192 314 0.062827563121 0.063289182155 2 88 88 176 15488
255	384637 54 192 314 0.062827563121 0.063289182155 2 88 88 176 15488
260	384691 72 0 72 0 0.061763722072 4 0 1 1 1
261	384763 32 50 50 0.061507722072 0.061507722072 1 11000000 11000000 11000000 1.21e+14
263	384795 54 192 314 0.062827563121 0.063289182155 2 60 60 120 7200
264	384849 26 50 50 0.061507722072 0.061507722072 1 88 88 88 7744
265	384875 26 48 48 0.061507722072 0.061507722072 1 60 60 60 3600
266	384901 54 192 314 0.062827563121 0.063289182155 2 88 88 176 15488
274	384955 83 0 73 0 0.061763722072 5 0 3 7 17
275	385038 165 0 313 0 0.063289182155 7 0 3 10 22
276	385203 100 51 73 0.061507722072 0.061763722072 4 0 2 4 6
277	385303 11 0 0 0 0 1 0 0 0 0
286	385314 26 45 45 0.061507722072 0.061507722072 1 32 32 32 1024
287	385340 54 195 317 0.062827563121 0.063289182155 2 32 32 64 2048
288	385394 63 0 317 0 0.063289182155 3 0 2 3 5
289	385457 11 0 0 0 0 1 0 0 0 0
290	385468 11 0 0 0 0 1 0 0 0 0
294	385479 25 41 41 0.056712975726 0.056712975726 1 0 0 0 0
300	385504 107 0 253 0 0.063031681117 7 0 1 1 1
301	385611 109 0 253 0 0.063031681117 7 0 704 704 495616
302	385720 26 253 253 0.063031681117 0.063031681117 1 0 0 0 0
303	385746 28 251 251 0.063031681117 0.063031681117 1 704 704 704 495616
305	385774 28 253 253 0.063031681117 0.063031681117 1 704 704 704 495616
311	385802 33 275 275 0.063287681117 0.063287681117 1 0.000256 0.000256 0.000256 6.5536e-08
312	385835 74 0 275 0 0.063287681117 4 0 1 1 1
313	385909 26 251 251 0.063031681117 0.063031681117 1 3 3 3 9
314	385935 74 0 252 0 0.063031681117 4 0 1 1 1
315	386009 432 0 276 0 0.063287681117 18 0 2 4 8
317	386441 12 0 0 0 0 1 31 31 31 961
318	386453 27 275 275 0.063287681117 0.063287681117 1 88 88 88 7744
320	386480 27 275 275 0.063287681117 0.063287681117 1 88 88 88 7744
321	386507 27 275 275 0.063287681117 0.063287681117 1 88 88 88 7744
323	386534 27 275 275 0.063287681117 0.063287681117 1 88 88 88 7744
324	386561 53 117 210 0.06176522311 0.062827948827 2 88 88 176 15488
326	386614 53 117 210 0.06176522311 0.062827948827 2 88 88 176 15488
327	386667 53 117 210 0.06176522311 0.062827948827 2 88 88 176 15488
329	386720 53 117 210 0.06176522311 0.062827948827 2 88 88 176 15488
334	386773 74 0 275 0 0.063287681117 4 0 1 1 1
335	386847 33 253 253 0.063031681117 0.063031681117 1 11000000 11000000 11000000 1.21e+14
337	386880 53 117 210 0.06176522311 0.062827948827 2 60 60 120 7200
338	386933 27 253 253 0.063031681117 0.063031681117 1 88 88 88 7744
339	386960 27 251 251 0.063031681117 0.063031681117 1 60 60 60 3600
340	386987 53 117 210 0.06176522311 0.062827948827 2 88 88 176 15488
348	387040 85 0 276 0 0.063287681117 5 0 3 7 17
349	387125 164 0 276 0 0.063287681117 7 0 3 10 22
350	387289 104 254 276 0.063031681117 0.063287681117 4 0 2 4 6
351	387393 11 0 0 0 0 1 0 0 0 0
360	387404 27 248 248 0.063031681117 0.063031681117 1 32 32 32 1024
361	387431 53 120 213 0.06176522311 0.062827948827 2 32 32 64 2048
362	387484 62 0 213 0 0.062827948827 3 0 2 3 5
363	387546 11 0 0 0 0 1 0 0 0 0
364	387557 11 0 0 0 0 1 0 0 0 0
374	387568 107 0 144 0 0.062570916366 7 0 1 1 1
375	387675 109 0 144 0 0.062570916366 7 0 704 704 495616
376	387784 26 144 144 0.062570916366 0.062570916366 1 0 0 0 0
377	387810 28 142 142 0.062570916366 0.062570916366 1 704 704 704 495616
379	387838 28 144 144 0.062570916366 0.062570916366 1 704 704 704 495616
385	387866 33 171 171 0.062826916366 0.062826916366 1 0.000256 0.000256 0.000256 6.5536e-08
386	387899 74 0 171 0 0.062826916366 4 0 1 1 1
387	387973 27 142 142 0.062570916366 0.062570916366 1 15 15 15 225
388	388000 74 0 143 0 0.062570916366 4 0 1 1 1
389	388074 430 0 295 0 0.063288713571 18 0 2 4 8
391	388504 12 0 0 0 0 1 31 31 31 961
392	388516 27 171 171 0.062826916366 0.062826916366 1 88 88 88 7744
394	388543 27 171 171 0.062826916366 0.062826916366 1 88 88 88 7744
395	388570 27 171 171 0.062826916366 0.062826916366 1 88 88 88 7744
397	388597 27 171 171 0.062826916366 0.062826916366 1 88 88 88 7744
398	388624 52 93 296 0.06176436881 0.063288713571 2 88 88 176 15488
400	388676 52 93 296 0.06176436881 0.063288713571 2 88 88 176 15488
401	388728 52 93 296 0.06176436881 0.063288713571 2 88 88 176 15488
403	388780 52 93 296 0.06176436881 0.063288713571 2 88 88 176 15488
408	388832 74 0 171 0 0.062826916366 4 0 1 1 1
409	388906 33 144 144 0.062570916366 0.062570916366 1 11000000 11000000 11000000 1.21e+14
411	388939 52 93 296 0.06176436881 0.063288713571 2 60 60 120 7200
412	388991 27 144 144 0.062570916366 0.062570916366 1 88 88 88 7744
413	389018 27 142 142 0.062570916366 0.062570916366 1 60 60 60 3600
414	389045 52 93 296 0.06176436881 0.063288713571 2 88 88 176 15488
422	389097 85 0 172 0 0.062826916366 5 0 3 7 17
423	389182 163 0 295 0 0.063288713571 7 0 3 10 22
424	389345 104 145 172 0.062570916366 0.062826916366 4 0 2 4 6
425	389449 11 0 0 0 0 1 0 0 0 0
434	389460 27 139 139 0.062570916366 0.062570916366 1 32 32 32 1024
435	389487 52 96 299 0.06176436881 0.063288713571 2 32 32 64 2048
436	389539 61 0 299 0 0.063288713571 3 0 2 3 5
437	389600 11 0 0 0 0 1 0 0 0 0
438	389611 11 0 0 0 0 1 0 0 0 0
443	389622 55 0 0 0 0 5 0 0 0 0
444	389677 55 0 0 0 0 5 0 0 0 0
455	389732 22 0 0 0 0 2 0 0 0 0
457	389754 22 0 0 0 0 2 0 0 0 0
458	389776 332 0 277 0 0.063288329971 14 0 0 0 0
460	390108 12 0 0 0 0 1 31 31 31 961
467	390120 81 123 278 0.061765358891 0.063288329971 3 88 88 264 23232
469	390201 81 123 278 0.061765358891 0.063288329971 3 88 88 264 23232
470	390282 81 123 278 0.061765358891 0.063288329971 3 88 88 264 23232
472	390363 81 123 278 0.061765358891 0.063288329971 3 88 88 264 23232
477	390444 22 0 0 0 0 2 0 0 0 0
480	390466 81 123 278 0.061765358891 0.063288329971 3 60 60 180 10800
483	390547 81 123 278 0.061765358891 0.063288329971 3 88 88 264 23232
491	390628 33 0 0 0 0 3 0 2 2 4
492	390661 166 0 277 0 0.063288329971 7 1 3 13 31
494	390827 11 0 0 0 0 1 0 0 0 0
504	390838 81 126 281 0.061765358891 0.063288329971 3 32 32 96 3072
505	390919 89 0 281 0 0.063288329971 4 0 3 6 14
506	391008 11 0 0 0 0 1 0 0 0 0
507	391019 11 0 0 0 0 1 0 0 0 0
512	391030 55 0 0 0 0 5 0 0 0 0
513	391085 55 0 0 0 0 5 0 0 0 0
524	391140 22 0 0 0 0 2 0 0 0 0
526	391162 22 0 0 0 0 2 0 0 0 0
527	391184 326 0 301 0 0.063288862108 14 0 0 0 0
529	391510 12 0 0 0 0 1 31 31 31 961
536	391522 79 75 302 0.06176411201 0.063288862108 3 88 88 264 23232
538	391601 79 75 302 0.06176411201 0.063288862108 3 88 88 264 23232
539	391680 79 75 302 0.06176411201 0.063288862108 3 88 88 264 23232
541	391759 79 75 302 0.06176411201 0.063288862108 3 88 88 264 23232
546	391838 22 0 0 0 0 2 0 0 0 0
549	391860 79 75 302 0.06176411201 0.063288862108 3 60 60 180 10800
552	391939 79 75 302 0.06176411201 0.063288862108 3 88 88 264 23232
560	392018 33 0 0 0 0 3 0 2 2 4
561	392051 163 0 301 0 0.063288862108 7 1 3 13 31
563	392214 11 0 0 0 0 1 0 0 0 0
573	392225 79 78 305 0.06176411201 0.063288862108 3 32 32 96 3072
574	392304 87 0 305 0 0.063288862108 4 0 3 6 14
575	392391 11 0 0 0 0 1 0 0 0 0
576	392402 11 0 0 0 0 1 0 0 0 0
581	392413 81 0 170 0 0.062808569051 6 0 1 1 1
582	392494 83 0 170 0 0.062808569051 6 0 704 704 495616
584	392577 28 170 170 0.062808569051 0.062808569051 1 704 704 704 495616
593	392605 22 0 0 0 0 2 0 0 0 0
594	392627 27 170 170 0.062808569051 0.062808569051 1 20 20 20 400
595	392654 100 0 325 0 0.063289253655 5 0 1 2 2
596	392754 382 0 325 0 0.063289253655 16 0 2 10 16
598	393136 12 0 0 0 0 1 31 31 31 961
605	393148 80 81 326 0.061764185258 0.063289253655 3 88 88 264 23232
607	393228 80 81 326 0.061764185258 0.063289253655 3 88 88 264 23232
608	393308 80 81 326 0.061764185258 0.063289253655 3 88 88 264 23232
610	393388 80 81 326 0.061764185258 0.063289253655 3 88 88 264 23232
615	393468 22 0 0 0 0 2 0 0 0 0
618	393490 80 81 326 0.061764185258 0.063289253655 3 60 60 180 10800
620	393570 27 170 170 0.062808569051 0.062808569051 1 60 60 60 3600
621	393597 80 81 326 0.061764185258 0.063289253655 3 88 88 264 23232
629	393677 33 0 0 0 0 3 0 2 2 4
630	393710 165 0 325 0 0.063289253655 7 1 3 13 31
632	393875 11 0 0 0 0 1 0 0 0 0
641	393886 27 167 167 0.062808569051 0.062808569051 1 32 32 32 1024
642	393913 80 84 329 0.061764185258 0.063289253655 3 32 32 96 3072
643	393993 88 0 329 0 0.063289253655 4 0 3 6 14
644	394081 11 0 0 0 0 1 0 0 0 0
645	394092 11 0 0 0 0 1 0 0 0 0
650	394103 55 0 0 0 0 5 0 0 0 0
651	394158 55 0 0 0 0 5 0 0 0 0
662	394213 22 0 0 0 0 2 0 0 0 0
664	394235 22 0 0 0 0 2 0 0 0 0
665	394257 126 0 319 0 0.063289194086 6 0 0 0 0
667	394383 12 0 0 0 0 1 31 31 31 961
674	394395 27 320 320 0.063289194086 0.063289194086 1 88 88 88 7744
676	394422 27 320 320 0.063289194086 0.063289194086 1 88 88 88 7744
677	394449 27 320 320 0.063289194086 0.063289194086 1 88 88 88 7744
679	394476 27 320 320 0.063289194086 0.063289194086 1 88 88 88 7744
684	394503 22 0 0 0 0 2 0 0 0 0
687	394525 27 320 320 0.063289194086 0.063289194086 1 60 60 60 3600
690	394552 27 320 320 0.063289194086 0.063289194086 1 88 88 88 7744
698	394579 33 0 0 0 0 3 0 2 2 4
699	394612 63 0 319 0 0.063289194086 3 1 3 5 11
701	394675 11 0 0 0 0 1 0 0 0 0
711	394686 27 323 323 0.063289194086 0.063289194086 1 32 32 32 1024
712	394713 37 0 323 0 0.063289194086 2 0 1 1 1
713	394750 11 0 0 0 0 1 0 0 0 0
714	394761 11 0 0 0 0 1 0 0 0 0
719	394772 55 0 0 0 0 5 0 0 0 0
720	394827 55 0 0 0 0 5 0 0 0 0
731	394882 22 0 0 0 0 2 0 0 0 0
733	394904 22 0 0 0 0 2 0 0 0 0
734	394926 228 0 227 0 0.062828445231 10 0 0 0 0
736	395154 12 0 0 0 0 1 31 31 31 961
743	395166 54 111 228 0.061764990683 0.062828445231 2 88 88 176 15488
745	395220 54 111 228 0.061764990683 0.062828445231 2 88 88 176 15488
746	395274 54 111 228 0.061764990683 0.062828445231 2 88 88 176 15488
748	395328 54 111 228 0.061764990683 0.062828445231 2 88 88 176 15488
753	395382 22 0 0 0 0 2 0 0 0 0
756	395404 54 111 228 0.061764990683 0.062828445231 2 60 60 120 7200
759	395458 54 111 228 0.061764990683 0.062828445231 2 88 88 176 15488
767	395512 33 0 0 0 0 3 0 2 2 4
768	395545 114 0 227 0 0.062828445231 5 1 3 9 21
770	395659 11 0 0 0 0 1 0 0 0 0
780	395670 54 114 231 0.061764990683 0.062828445231 2 32 32 64 2048
781	395724 63 0 231 0 0.062828445231 3 0 2 3 5
782	395787 11 0 0 0 0 1 0 0 0 0
783	395798 11 0 0 0 0 1 0 0 0 0
788	395809 55 0 0 0 0 5 0 0 0 0
789	395864 55 0 0 0 0 5 0 0 0 0
800	395919 22 0 0 0 0 2 0 0 0 0
802	395941 22 0 0 0 0 2 0 0 0 0
803	395963 222 0 283 0 0.06328854076 10 0 0 0 0
805	396185 12 0 0 0 0 1 31 31 31 961
812	396197 52 222 284 0.06282841966 0.06328854076 2 88 88 176 15488
814	396249 52 222 284 0.06282841966 0.06328854076 2 88 88 176 15488
815	396301 52 222 284 0.06282841966 0.06328854076 2 88 88 176 15488
817	396353 52 222 284 0.06282841966 0.06328854076 2 88 88 176 15488
822	396405 22 0 0 0 0 2 0 0 0 0
825	396427 52 222 284 0.06282841966 0.06328854076 2 60 60 120 7200
828	396479 52 222 284 0.06282841966 0.06328854076 2 88 88 176 15488
836	396531 33 0 0 0 0 3 0 2 2 4
837	396564 111 0 283 0 0.06328854076 5 1 3 9 21
839	396675 11 0 0 0 0 1 0 0 0 0
849	396686 52 225 287 0.06282841966 0.06328854076 2 32 32 64 2048
850	396738 61 0 287 0 0.06328854076 3 0 2 3 5
851	396799 11 0 0 0 0 1 0 0 0 0
852	396810 11 0 0 0 0 1 0 0 0 0
857	396821 55 0 0 0 0 5 0 0 0 0
858	396876 55 0 0 0 0 5 0 0 0 0
869	396931 22 0 0 0 0 2 0 0 0 0
871	396953 22 0 0 0 0 2 0 0 0 0
872	396975 222 0 197 0 0.062827770352 10 0 0 0 0
874	397197 12 0 0 0 0 1 31 31 31 961
881	397209 52 99 198 0.06176459006 0.062827770352 2 88 88 176 15488
883	397261 52 99 198 0.06176459006 0.062827770352 2 88 88 176 15488
884	397313 52 99 198 0.06176459006 0.062827770352 2 88 88 176 15488
886	397365 52 99 198 0.06176459006 0.062827770352 2 88 88 176 15488
891	397417 22 0 0 0 0 2 0 0 0 0
894	397439 52 99 198 0.06176459006 0.062827770352 2 60 60 120 7200
897	397491 52 99 198 0.06176459006 0.062827770352 2 88 88 176 15488
905	397543 33 0 0 0 0 3 0 2 2 4
906	397576 111 0 197 0 0.062827770352 5 1 3 9 21
908	397687 11 0 0 0 0 1 0 0 0 0
918	397698 53 102 201 0.06176459006 0.062827770352 2 32 32 64 2048
919	397751 62 0 201 0 0.062827770352 3 0 2 3 5
920	397813 11 0 0 0 0 1 0 0 0 0
921	397824 11 0 0 0 0 1 0 0 0 0
926	397835 55 0 0 0 0 5 0 0 0 0
927	397890 55 0 0 0 0 5 0 0 0 0
938	397945 22 0 0 0 0 2 0 0 0 0
940	397967 22 0 0 0 0 2 0 0 0 0
941	397989 228 0 233 0 0.062828701606 10 0 0 0 0
943	398217 12 0 0 0 0 1 31 31 31 961
950	398229 54 105 234 0.061764862477 0.062828701606 2 88 88 176 15488
952	398283 54 105 234 0.061764862477 0.062828701606 2 88 88 176 15488
953	398337 54 105 234 0.061764862477 0.062828701606 2 88 88 176 15488
955	398391 54 105 234 0.061764862477 0.062828701606 2 88 88 176 15488
960	398445 22 0 0 0 0 2 0 0 0 0
963	398467 54 105 234 0.061764862477 0.062828701606 2 60 60 120 7200
966	398521 54 105 234 0.061764862477 0.062828701606 2 88 88 176 15488
974	398575 33 0 0 0 0 3 0 2 2 4
975	398608 114 0 233 0 0.062828701606 5 1 3 9 21
977	398722 11 0 0 0 0 1 0 0 0 0
987	398733 54 108 237 0.061764862477 0.062828701606 2 32 32 64 2048
988	398787 63 0 237 0 0.062828701606 3 0 2 3 5
989	398850 11 0 0 0 0 1 0 0 0 0
990	398861 11 0 0 0 0 1 0 0 0 0
995	398872 55 0 0 0 0 5 0 0 0 0
996	398927 55 0 0 0 0 5 0 0 0 0
1007	398982 24 0 0 0 0 2 0 0 0 0
1009	399006 24 0 0 0 0 2 0 0 0 0
1010	399030 132 0 307 0 0.063288935289 6 0 0 0 0
1012	399162 13 0 0 0 0 1 31 31 31 961
1019	399175 28 308 308 0.063288935289 0.063288935289 1 88 88 88 7744
1021	399203 28 308 308 0.063288935289 0.063288935289 1 88 88 88 7744
1022	399231 28 308 308 0.063288935289 0.063288935289 1 88 88 88 7744
1024	399259 28 308 308 0.063288935289 0.063288935289 1 88 88 88 7744
1029	399287 24 0 0 0 0 2 0 0 0 0
1032	399311 28 308 308 0.063288935289 0.063288935289 1 60 60 60 3600
1035	399339 28 308 308 0.063288935289 0.063288935289 1 88 88 88 7744
1043	399367 36 0 0 0 0 3 0 2 2 4
1044	399403 66 0 307 0 0.063288935289 3 1 3 5 11
1046	399469 12 0 0 0 0 1 0 0 0 0
1056	399481 28 311 311 0.063288935289 0.063288935289 1 32 32 32 1024
1057	399509 39 0 311 0 0.063288935289 2 0 1 1 1
1058	399548 12 0 0 0 0 1 0 0 0 0
1059	399560 12 0 0 0 0 1 0 0 0 0
1064	399572 60 0 0 0 0 5 0 0 0 0
1065	399632 60 0 0 0 0 5 0 0 0 0
1076	399692 24 0 0 0 0 2 0 0 0 0
1078	399716 24 0 0 0 0 2 0 0 0 0
1079	399740 24 0 0 0 0 2 0 0 0 0
1081	399764 13 0 0 0 0 1 31 31 31 961
1098	399777 24 0 0 0 0 2 0 0 0 0
1112	399801 36 0 0 0 0 3 0 2 2 4
1113	399837 12 0 0 0 0 1 1 1 1 1
1115	399849 12 0 0 0 0 1 0 0 0 0
1126	399861 12 0 0 0 0 1 0 0 0 0
1127	399873 12 0 0 0 0 1 0 0 0 0
1128	399885 12 0 0 0 0 1 0 0 0 0
1133	399897 60 0 0 0 0 5 0 0 0 0
1134	399957 60 0 0 0 0 5 0 0 0 0
1145	400017 24 0 0 0 0 2 0 0 0 0
1147	400041 24 0 0 0 0 2 0 0 0 0
1148	400065 24 0 0 0 0 2 0 0 0 0
1150	400089 13 0 0 0 0 1 31 31 31 961
1167	400102 24 0 0 0 0 2 0 0 0 0
1181	400126 36 0 0 0 0 3 0 2 2 4
1182	400162 12 0 0 0 0 1 1 1 1 1
1184	400174 12 0 0 0 0 1 0 0 0 0
1195	400186 12 0 0 0 0 1 0 0 0 0
1196	400198 12 0 0 0 0 1 0 0 0 0
1197	400210 12 0 0 0 0 1 0 0 0 0
1202	400222 60 0 0 0 0 5 0 0 0 0
1203	400282 60 0 0 0 0 5 0 0 0 0
1214	400342 24 0 0 0 0 2 0 0 0 0
1216	400366 24 0 0 0 0 2 0 0 0 0
1217	400390 24 0 0 0 0 2 0 0 0 0
1219	400414 13 0 0 0 0 1 31 31 31 961
1236	400427 24 0 0 0 0 2 0 0 0 0
1250	400451 36 0 0 0 0 3 0 2 2 4
1251	400487 12 0 0 0 0 1 1 1 1 1
1253	400499 12 0 0 0 0 1 0 0 0 0
1264	400511 12 0 0 0 0 1 0 0 0 0
1265	400523 12 0 0 0 0 1 0 0 0 0
1266	400535 12 0 0 0 0 1 0 0 0 0
1271	400547 60 0 0 0 0 5 0 0 0 0
1272	400607 60 0 0 0 0 5 0 0 0 0
1283	400667 24 0 0 0 0 2 0 0 0 0
1285	400691 24 0 0 0 0 2 0 0 0 0
1286	400715 24 0 0 0 0 2 0 0 0 0
1288	400739 13 0 0 0 0 1 31 31 31 961
1305	400752 24 0 0 0 0 2 0 0 0 0
1319	400776 36 0 0 0 0 3 0 2 2 4
1320	400812 12 0 0 0 0 1 1 1 1 1
1322	400824 12 0 0 0 0 1 0 0 0 0
1333	400836 12 0 0 0 0 1 0 0 0 0
1334	400848 12 0 0 0 0 1 0 0 0 0
1335	400860 12 0 0 0 0 1 0 0 0 0
1340	400872 60 0 0 0 0 5 0 0 0 0
1341	400932 60 0 0 0 0 5 0 0 0 0
1352	400992 24 0 0 0 0 2 0 0 0 0
1354	401016 24 0 0 0 0 2 0 0 0 0
1355	401040 24 0 0 0 0 2 0 0 0 0
1357	401064 13 0 0 0 0 1 31 31 31 961
1374	401077 24 0 0 0 0 2 0 0 0 0
1388	401101 36 0 0 0 0 3 0 2 2 4
1389	401137 12 0 0 0 0 1 1 1 1 1
1391	401149 12 0 0 0 0 1 0 0 0 0
1402	401161 12 0 0 0 0 1 0 0 0 0
1403	401173 12 0 0 0 0 1 0 0 0 0
1404	401185 12 0 0 0 0 1 0 0 0 0
8	401197 24 338 338 0.063290036447 0.063290036447 1 0 0 0 0
10	401221 25 338 338 0.063290036447 0.063290036447 1 0 0 0 0
82	401246 25 338 338 0.063290036447 0.063290036447 1 0 0 0 0
84	401271 25 338 338 0.063290036447 0.063290036447 1 0 0 0 0
156	401296 26 338 338 0.063290036447 0.063290036447 1 0 0 0 0
158	401322 26 338 338 0.063290036447 0.063290036447 1 0 0 0 0
230	401348 40 338 338 0.063290036447 0.063290036447 1 11123.393815542 11123.393815542 11123.393815542 123729889.97564
232	401388 40 338 338 0.063290036447 0.063290036447 1 11123.393815542 11123.393815542 11123.393815542 123729889.97564
304	401428 40 338 338 0.063290036447 0.063290036447 1 11123.393815542 11123.393815542 11123.393815542 123729889.97564
306	401468 40 338 338 0.063290036447 0.063290036447 1 11123.393815542 11123.393815542 11123.393815542 123729889.97564
378	401508 40 338 338 0.063290036447 0.063290036447 1 11123.393815542 11123.393815542 11123.393815542 123729889.97564
380	401548 40 338 338 0.063290036447 0.063290036447 1 11123.393815542 11123.393815542 11123.393815542 123729889.97564
447	401588 26 338 338 0.063290036447 0.063290036447 1 0 0 0 0
449	401614 26 338 338 0.063290036447 0.063290036447 1 0 0 0 0
516	401640 26 338 338 0.063290036447 0.063290036447 1 0 0 0 0
518	401666 26 338 338 0.063290036447 0.063290036447 1 0 0 0 0
585	401692 40 338 338 0.063290036447 0.063290036447 1 11123.393815542 11123.393815542 11123.393815542 123729889.97564
587	401732 26 338 338 0.063290036447 0.063290036447 1 0 0 0 0
654	401758 26 338 338 0.063290036447 0.063290036447 1 0 0 0 0
656	401784 26 338 338 0.063290036447 0.063290036447 1 0 0 0 0
723	401810 26 338 338 0.063290036447 0.063290036447 1 0 0 0 0
725	401836 26 338 338 0.063290036447 0.063290036447 1 0 0 0 0
792	401862 26 338 338 0.063290036447 0.063290036447 1 0 0 0 0
794	401888 26 338 338 0.063290036447 0.063290036447 1 0 0 0 0
861	401914 26 338 338 0.063290036447 0.063290036447 1 0 0 0 0
863	401940 26 338 338 0.063290036447 0.063290036447 1 0 0 0 0
930	401966 26 338 338 0.063290036447 0.063290036447 1 0 0 0 0
932	401992 26 338 338 0.063290036447 0.063290036447 1 0 0 0 0
999	402018 26 338 338 0.063290036447 0.063290036447 1 0 0 0 0
1001	402044 27 338 338 0.063290036447 0.063290036447 1 0 0 0 0
1068	402071 27 338 338 0.063290036447 0.063290036447 1 0 0 0 0
1070	402098 27 338 338 0.063290036447 0.063290036447 1 0 0 0 0
1137	402125 27 338 338 0.063290036447 0.063290036447 1 0 0 0 0
1139	402152 27 338 338 0.063290036447 0.063290036447 1 0 0 0 0
1206	402179 27 338 338 0.063290036447 0.063290036447 1 0 0 0 0
1208	402206 27 338 338 0.063290036447 0.063290036447 1 0 0 0 0
1275	402233 27 338 338 0.063290036447 0.063290036447 1 0 0 0 0
1277	402260 27 338 338 0.063290036447 0.063290036447 1 0 0 0 0
1344	402287 27 338 338 0.063290036447 0.063290036447 1 0 0 0 0
1346	402314 27 338 338 0.063290036447 0.063290036447 1 0 0 0 0

