file 614788 1731387032                                          
version 3
run Aodv-0-20241112-11:49:43-16948
attr configname Aodv
attr datetime 20241112-11:49:43
attr datetimef 20241112-114943
attr experiment Aodv
attr inifile omnetpp.ini
attr iterationvars ""
attr iterationvarsd ""
attr iterationvarsf ""
attr measurement ""
attr network manet2.ManetprotocolsShowcaseB
attr processid 16948
attr repetition 0
attr replication #0
attr resultdir results
attr runnumber 0
attr seedset 0
config image-path ../../inet4.5/images
config extends MobileNodesBase
config sim-time-limit 1000s
config *.*.routingApp.typename Aodv
config *.*.routingApp.activeRouteTimeout 1s
config *.*.routingApp.deletePeriod 0.5s
config *.visualizer.*.routingTableVisualizer[0].displayRoutingTables true
config *.visualizer.*.routingTableVisualizer[0].destinationFilter "\"destination\""
config network manet2.ManetprotocolsShowcaseB
config **.transmitter.power 1mW
config *.node*.mobility.typename LinearMobility
config *.node*.mobility.initialMovementHeading uniform(0deg,360deg)
config *.node*.mobility.speed 2mps
config **.constraintAreaMaxX 2000m
config **.constraintAreaMaxY 2000m
config **.constraintAreaMinX 0m
config **.constraintAreaMinY 0m
config *.visualizer.*.routingTableVisualizer[0].displayLabels false
config *.visualizer.*.routingTableVisualizer[0].displayRoutesIndividually false
config *.visualizer.*.routingTableVisualizer[0].lineShift 0
config *.visualizer.*.networkRouteVisualizer[0].displayRoutes true
config *.visualizer.*.networkRouteVisualizer[0].packetFilter "\"*ping*\""
config *.visualizer.*.interfaceTableVisualizer[0].displayInterfaceTables true
config *.visualizer.*.interfaceTableVisualizer[0].format "\"%a/%l\""
config *.source.numApps 1
config *.source.app[0].typename PingApp
config *.source.app[0].destAddr "\"destination\""
config *.source.app[0].printPing true
config *.visualizer.*.numDataLinkVisualizers 5
config *.visualizer.*.dataLinkVisualizer[*].activityLevel "\"peer\""
config *.visualizer.*.dataLinkVisualizer[*].displayLinks true
config *.visualizer.*.dataLinkVisualizer[0].packetFilter "\"aodv::Rreq or GPSRBeacon\""
config *.visualizer.*.dataLinkVisualizer[1].packetFilter "\"ping* or UDP*\""
config *.visualizer.*.dataLinkVisualizer[1].*Color "\"blue\""
config *.visualizer.*.dataLinkVisualizer[2].packetFilter "\"aodv::Rrep\""
config *.visualizer.*.dataLinkVisualizer[2].*Color "\"darkslategray\""
config *.visualizer.*.dataLinkVisualizer[3].packetFilter "\"aodv::Rerr\""
config *.visualizer.*.dataLinkVisualizer[3].*Color "\"red\""
config *.visualizer.*.dataLinkVisualizer[4].packetFilter "\"Hello\""
config *.visualizer.*.dataLinkVisualizer[4].*Color "\"green\""
config **.wlan[*].bitrate 11Mbps
config *.configurator.addStaticRoutes false
config **.netmaskRoutes "\"\""
config **.arp.typename GlobalArp
config sim-time-limit 1000s

vector 0 ManetprotocolsShowcaseB.source.lo[0].lo rcvdPkFromHl:vector(packetBytes) ETV
attr interpolationmode none
attr recordingmode vector(packetBytes)
attr source packetReceivedFromUpper
attr title "packets received from higher layer, packetBytes"
vector 1 ManetprotocolsShowcaseB.source.lo[0].lo passedUpPk:vector(packetBytes) ETV
attr interpolationmode none
attr recordingmode vector(packetBytes)
attr source packetSentToUpper
attr title "packets passed to higher layer, packetBytes"
vector 2 ManetprotocolsShowcaseB.source.lo[0] packetDropInterfaceDown:vector(packetBytes) ETV
attr interpolationmode none
attr recordingmode vector(packetBytes)
attr source packetDropReasonIsInterfaceDown(packetDropped)
attr title "packet drops: interface down, packetBytes"
vector 3 ManetprotocolsShowcaseB.source.lo[0] packetDropNoCarrier:vector(packetBytes) ETV
attr interpolationmode none
attr recordingmode vector(packetBytes)
attr source packetDropReasonIsNoCarrier(packetDropped)
attr title "packet drops: no carrier, packetBytes"
vector 4 ManetprotocolsShowcaseB.source.wlan[0].mac.dcf.channelAccess.pendingQueue queueLength:vector ETV
attr autoWarmupFilter false
attr interpolationmode sample-hold
attr recordingmode vector
attr source "warmup(atomic(constant0(packetPushEnded) + count(packetPushStarted) - count(packetPulled) - count(packetRemoved) - count(packetDropped)))"
attr title "queue length"
attr unit pk
vector 5 ManetprotocolsShowcaseB.source.wlan[0].mac.dcf.channelAccess.pendingQueue queueBitLength:vector ETV
attr autoWarmupFilter false
attr interpolationmode sample-hold
attr recordingmode vector
attr source "warmup(atomic(constant0(packetPushEnded) + sum(packetLength(packetPushStarted)) - sum(packetLength(packetPulled)) - sum(packetLength(packetRemoved)) - sum(packetLength(packetDropped))))"
attr title "queue bit length"
attr unit b
vector 6 ManetprotocolsShowcaseB.source.wlan[0].mac.dcf.channelAccess.pendingQueue queueingTime:vector ETV
attr interpolationmode none
attr recordingmode vector
attr source queueingTime(packetPulled)
attr title "queueing times"
attr unit s
vector 7 ManetprotocolsShowcaseB.source.wlan[0].mac.dcf.channelAccess.pendingQueue incomingPacketLengths:vector ETV
attr interpolationmode none
attr recordingmode vector
attr source packetLength(packetPushStarted)
attr title "incoming packet lengths"
attr unit b
vector 8 ManetprotocolsShowcaseB.source.wlan[0].mac.dcf.channelAccess.pendingQueue incomingDataRate:vector ETV
attr interpolationmode linear
attr recordingmode vector
attr source throughput(packetPushStarted)
attr title "incoming datarate"
attr unit bps
vector 9 ManetprotocolsShowcaseB.source.wlan[0].mac.dcf.channelAccess.pendingQueue outgoingPacketLengths:vector ETV
attr interpolationmode none
attr recordingmode vector
attr source packetLength(packetPulled)
attr title "outgoing packet lengths"
attr unit b
vector 10 ManetprotocolsShowcaseB.source.wlan[0].mac.dcf.channelAccess.pendingQueue outgoingDataRate:vector ETV
attr interpolationmode linear
attr recordingmode vector
attr source throughput(packetPulled)
attr title "outgoing datarate"
attr unit bps
vector 11 ManetprotocolsShowcaseB.source.wlan[0].mac.dcf.channelAccess.pendingQueue droppedPacketLengthsQueueOverflow:vector ETV
attr interpolationmode none
attr recordingmode vector
attr source packetLength(packetDropReasonIsQueueOverflow(packetDropped))
attr title "dropped packet lengths: queue overflow"
attr unit b
vector 12 ManetprotocolsShowcaseB.source.wlan[0].mac.dcf.channelAccess.pendingQueue flowQueueingTime:vector ETV
attr interpolationmode none
attr recordingmode vector
attr source queueingTime(demuxFlow(packetPulled))
attr title "flow queueing times"
attr unit s
vector 13 ManetprotocolsShowcaseB.source.wlan[0].mac.dcf.channelAccess.pendingQueue flowIncomingDataRate:vector ETV
attr interpolationmode linear
attr recordingmode vector
attr source throughput(flowPacketLength(demuxFlow(packetPushStarted)))
attr title "flow specific incoming data rate"
attr unit bps
vector 14 ManetprotocolsShowcaseB.source.wlan[0].mac.dcf.channelAccess.pendingQueue flowOutgoingDataRate:vector ETV
attr interpolationmode linear
attr recordingmode vector
attr source throughput(flowPacketLength(demuxFlow(packetPulled)))
attr title "flow specific outgoing data rate"
attr unit bps
vector 15 ManetprotocolsShowcaseB.source.wlan[0].mac.dcf.channelAccess.inProgressFrames queueingTime:vector ETV
attr interpolationmode none
attr recordingmode vector
attr source queueingTime(packetDequeued)
attr title "queueing times"
vector 16 ManetprotocolsShowcaseB.source.wlan[0].mac.dcf.channelAccess.inProgressFrames queueLength:vector ETV
attr autoWarmupFilter false
attr interpolationmode sample-hold
attr recordingmode vector
attr source "warmup(count(packetEnqueued) - count(packetDequeued))"
attr title "queue length"
vector 17 ManetprotocolsShowcaseB.source.wlan[0].mac.dcf.channelAccess.contention backoffPeriodGenerated:vector ETV
attr interpolationmode none
attr recordingmode vector
attr title "backoff periods"
vector 18 ManetprotocolsShowcaseB.source.wlan[0].mac.dcf.channelAccess.contention backoffActive:vector ETV
attr autoWarmupFilter false
attr interpolationmode sample-hold
attr recordingmode vector
attr source warmup(count(backoffStarted)-count(backoffStopped))
attr title "backoff active"
vector 19 ManetprotocolsShowcaseB.source.wlan[0].mac.dcf.channelAccess.contention stateChanged:vector ETV
attr enum IDLE,DEFER,IFS_AND_BACKOFF
attr interpolationmode none
attr recordingmode vector
attr title "contention state changed"
attr type enum
vector 20 ManetprotocolsShowcaseB.source.wlan[0].mac.dcf.recipientMacDataService packetDropDuplicateDetected:vector(packetBytes) ETV
attr interpolationmode none
attr recordingmode vector(packetBytes)
attr source packetDropReasonIsDuplicateDetected(packetDropped)
attr title "packet drops: duplicate detected, packetBytes"
vector 21 ManetprotocolsShowcaseB.source.wlan[0].mac.dcf.recoveryProcedure contentionWindowChanged:vector ETV
attr interpolationmode sample-hold
attr recordingmode vector
attr title "contention window"
vector 22 ManetprotocolsShowcaseB.source.wlan[0].mac.dcf packetSentToPeer:vector(packetBytes) ETV
attr interpolationmode none
attr recordingmode vector(packetBytes)
attr title "packets sent, packetBytes"
vector 23 ManetprotocolsShowcaseB.source.wlan[0].mac.dcf packetSentToPeerUnicast:vector(packetBytes) ETV
attr interpolationmode none
attr recordingmode vector(packetBytes)
attr source ieee80211Unicast(packetSentToPeer)
attr title "packets sent: unicast, packetBytes"
vector 24 ManetprotocolsShowcaseB.source.wlan[0].mac.dcf packetSentToPeerMulticast:vector(packetBytes) ETV
attr interpolationmode none
attr recordingmode vector(packetBytes)
attr source ieee80211Multicast(packetSentToPeer)
attr title "packets sent: multicast, packetBytes"
vector 25 ManetprotocolsShowcaseB.source.wlan[0].mac.dcf packetSentToPeerBroadcast:vector(packetBytes) ETV
attr interpolationmode none
attr recordingmode vector(packetBytes)
attr source ieee80211Broadcast(packetSentToPeer)
attr title "packets sent: broadcast , packetBytes"
vector 26 ManetprotocolsShowcaseB.source.wlan[0].mac.dcf packetSentToPeerWithRetry:vector(packetBytes) ETV
attr interpolationmode none
attr recordingmode vector(packetBytes)
attr source ieee80211Retry(packetSentToPeer)
attr title "packets sent: with retry, packetBytes"
vector 27 ManetprotocolsShowcaseB.source.wlan[0].mac.dcf packetSentToPeerWithoutRetry:vector(packetBytes) ETV
attr interpolationmode none
attr recordingmode vector(packetBytes)
attr source ieee80211NotRetry(packetSentToPeer)
attr title "packets sent: without retry, packetBytes"
vector 28 ManetprotocolsShowcaseB.source.wlan[0].mac.dcf packetReceivedFromPeer:vector(packetBytes) ETV
attr interpolationmode none
attr recordingmode vector(packetBytes)
attr title "packets received, packetBytes"
vector 29 ManetprotocolsShowcaseB.source.wlan[0].mac.dcf packetReceivedFromPeerUnicast:vector(packetBytes) ETV
attr interpolationmode none
attr recordingmode vector(packetBytes)
attr source ieee80211Unicast(packetReceivedFromPeer)
attr title "packets received: unicast, packetBytes"
vector 30 ManetprotocolsShowcaseB.source.wlan[0].mac.dcf packetReceivedFromPeerMulticast:vector(packetBytes) ETV
attr interpolationmode none
attr recordingmode vector(packetBytes)
attr source ieee80211Multicast(packetReceivedFromPeer)
attr title "packets received: multicast, packetBytes"
vector 31 ManetprotocolsShowcaseB.source.wlan[0].mac.dcf packetReceivedFromPeerBroadcast:vector(packetBytes) ETV
attr interpolationmode none
attr recordingmode vector(packetBytes)
attr source ieee80211Broadcast(packetReceivedFromPeer)
attr title "packets received: broadcast, packetBytes"
vector 32 ManetprotocolsShowcaseB.source.wlan[0].mac.dcf packetReceivedFromPeerWithRetry:vector(packetBytes) ETV
attr interpolationmode none
attr recordingmode vector(packetBytes)
attr source ieee80211Retry(packetReceivedFromPeer)
attr title "packets received: with retry, packetBytes"
vector 33 ManetprotocolsShowcaseB.source.wlan[0].mac.dcf packetReceivedFromPeerWithoutRetry:vector(packetBytes) ETV
attr interpolationmode none
attr recordingmode vector(packetBytes)
attr source ieee80211NotRetry(packetReceivedFromPeer)
attr title "packets received: without retry, packetBytes"
vector 34 ManetprotocolsShowcaseB.source.wlan[0].mac.dcf packetDrop:vector(packetBytes) ETV
attr interpolationmode none
attr recordingmode vector(packetBytes)
attr source packetDropped
attr title "packet drops, packetBytes"
vector 35 ManetprotocolsShowcaseB.source.wlan[0].mac.dcf packetDropNotAddressedToUs:vector(packetBytes) ETV
attr interpolationmode none
attr recordingmode vector(packetBytes)
attr source packetDropReasonIsNotAddressedToUs(packetDropped)
attr title "packet drops: not addressed to us, packetBytes"
vector 36 ManetprotocolsShowcaseB.source.wlan[0].mac.dcf packetDropQueueOverflow:vector(packetBytes) ETV
attr interpolationmode none
attr recordingmode vector(packetBytes)
attr source packetDropReasonIsQueueOverflow(packetDropped)
attr title "packet drops: queue overflow, packetBytes"
vector 37 ManetprotocolsShowcaseB.source.wlan[0].mac.dcf packetDropRetryLimitReached:vector(packetBytes) ETV
attr interpolationmode none
attr recordingmode vector(packetBytes)
attr source packetDropReasonIsRetryLimitReached(packetDropped)
attr title "packet drops: retry limit reached, packetBytes"
vector 38 ManetprotocolsShowcaseB.source.wlan[0].mac.dcf frameSequenceActive:vector ETV
attr autoWarmupFilter false
attr interpolationmode sample-hold
attr recordingmode vector
attr source warmup(count(frameSequenceStarted)-count(frameSequenceFinished))
attr title "frame sequence active"
vector 39 ManetprotocolsShowcaseB.source.wlan[0].mac.dcf datarateSelected:vector ETV
attr interpolationmode none
attr recordingmode vector
attr title "datarates selected"
vector 40 ManetprotocolsShowcaseB.source.wlan[0].mac.rx nav:vector ETV
attr interpolationmode linear
attr recordingmode vector
attr source navChanged
attr title "network allocation vector"
vector 41 ManetprotocolsShowcaseB.source.wlan[0].mac packetSentToUpper:vector(packetBytes) ETV
attr interpolationmode none
attr recordingmode vector(packetBytes)
attr title "packets sent to upper layer, packetBytes"
vector 42 ManetprotocolsShowcaseB.source.wlan[0].mac packetSentToLower:vector(packetBytes) ETV
attr interpolationmode none
attr recordingmode vector(packetBytes)
attr title "packets sent to lower layer, packetBytes"
vector 43 ManetprotocolsShowcaseB.source.wlan[0].mac packetReceivedFromUpper:vector(packetBytes) ETV
attr interpolationmode none
attr recordingmode vector(packetBytes)
attr title "packets received from upper layer, packetBytes"
vector 44 ManetprotocolsShowcaseB.source.wlan[0].mac packetReceivedFromLower:vector(packetBytes) ETV
attr interpolationmode none
attr recordingmode vector(packetBytes)
attr title "packets received from lower layer, packetBytes"
vector 45 ManetprotocolsShowcaseB.source.wlan[0].mac packetDrop:vector(packetBytes) ETV
attr interpolationmode none
attr recordingmode vector(packetBytes)
attr source packetDropped
attr title "packet drops, packetBytes"
vector 46 ManetprotocolsShowcaseB.source.wlan[0].mac packetDropIncorrectlyReceived:vector(packetBytes) ETV
attr interpolationmode none
attr recordingmode vector(packetBytes)
attr source packetDropReasonIsIncorrectlyReceived(packetDropped)
attr title "packet drops: incorrectly received, packetBytes"
vector 47 ManetprotocolsShowcaseB.source.wlan[0].mac packetDropNotAddressedToUs:vector(packetBytes) ETV
attr interpolationmode none
attr recordingmode vector(packetBytes)
attr source packetDropReasonIsNotAddressedToUs(packetDropped)
attr title "packet drops: not addressed to us, packetBytes"
vector 48 ManetprotocolsShowcaseB.source.wlan[0].mac packetDropQueueOverflow:vector(packetBytes) ETV
attr interpolationmode none
attr recordingmode vector(packetBytes)
attr source packetDropReasonIsQueueOverflow(packetDropped)
attr title "packet drops: queue overflow, packetBytes"
vector 49 ManetprotocolsShowcaseB.source.wlan[0].mac packetDropRetryLimitReached:vector(packetBytes) ETV
attr interpolationmode none
attr recordingmode vector(packetBytes)
attr source packetDropReasonIsRetryLimitReached(packetDropped)
attr title "packet drops: retry limit reached, packetBytes"
vector 50 ManetprotocolsShowcaseB.source.wlan[0].mac packetDropDuplicateDetected:vector(packetBytes) ETV
attr interpolationmode none
attr recordingmode vector(packetBytes)
attr source packetDropReasonIsDuplicateDetected(packetDropped)
attr title "packet drops: duplicate detected, packetBytes"
vector 51 ManetprotocolsShowcaseB.source.wlan[0].mac packetDropOther:vector(packetBytes) ETV
attr interpolationmode none
attr recordingmode vector(packetBytes)
attr source packetDropReasonIsOther(packetDropped)
attr title "packet drops: other, packetBytes"
vector 52 ManetprotocolsShowcaseB.source.wlan[0].radio radioMode:vector ETV
attr interpolationmode sample-hold
attr recordingmode vector
attr source radioModeChanged
attr title "Radio mode"
vector 53 ManetprotocolsShowcaseB.source.wlan[0].radio receptionState:vector ETV
attr interpolationmode sample-hold
attr recordingmode vector
attr source receptionStateChanged
attr title "Radio reception state"
vector 54 ManetprotocolsShowcaseB.source.wlan[0].radio transmissionState:vector ETV
attr interpolationmode sample-hold
attr recordingmode vector
attr source transmissionStateChanged
attr title "Radio transmission state"
vector 55 ManetprotocolsShowcaseB.source.wlan[0].radio radioChannel:vector ETV
attr interpolationmode sample-hold
attr recordingmode vector
attr source radioChannelChanged
attr title "Radio channel"
vector 56 ManetprotocolsShowcaseB.source.wlan[0] packetDropInterfaceDown:vector(packetBytes) ETV
attr interpolationmode none
attr recordingmode vector(packetBytes)
attr source packetDropReasonIsInterfaceDown(packetDropped)
attr title "packet drops: interface down, packetBytes"
vector 57 ManetprotocolsShowcaseB.source.wlan[0] packetDropNoCarrier:vector(packetBytes) ETV
attr interpolationmode none
attr recordingmode vector(packetBytes)
attr source packetDropReasonIsNoCarrier(packetDropped)
attr title "packet drops: no carrier, packetBytes"
vector 58 ManetprotocolsShowcaseB.source.ipv4.ip packetDropAddressResolutionFailed:vector(packetBytes) ETV
attr interpolationmode none
attr recordingmode vector(packetBytes)
attr source packetDropReasonIsAddressResolutionFailed(packetDropped)
attr title "packet drop: address resolution failed, packetBytes"
vector 59 ManetprotocolsShowcaseB.source.ipv4.ip packetDropHopLimitReached:vector(packetBytes) ETV
attr interpolationmode none
attr recordingmode vector(packetBytes)
attr source packetDropReasonIsHopLimitReached(packetDropped)
attr title "packet drop: hop limit reached, packetBytes"
vector 60 ManetprotocolsShowcaseB.source.ipv4.ip packetDropForwardingDisabled:vector(packetBytes) ETV
attr interpolationmode none
attr recordingmode vector(packetBytes)
attr source packetDropReasonIsForwardingDisabled(packetDropped)
attr title "packet drop: forwarding disabled, packetBytes"
vector 61 ManetprotocolsShowcaseB.source.ipv4.ip packetDropNoInterfaceFound:vector(packetBytes) ETV
attr interpolationmode none
attr recordingmode vector(packetBytes)
attr source packetDropReasonIsNoInterfaceFound(packetDropped)
attr title "packet drop: no interface found, packetBytes"
vector 62 ManetprotocolsShowcaseB.source.ipv4.ip packetDropNoRouteFound:vector(packetBytes) ETV
attr interpolationmode none
attr recordingmode vector(packetBytes)
attr source packetDropReasonIsNoRouteFound(packetDropped)
attr title "packet drop: no route found, packetBytes"
vector 63 ManetprotocolsShowcaseB.source.ipv4.ip packetDropUndefined:vector(packetBytes) ETV
attr interpolationmode none
attr recordingmode vector(packetBytes)
attr source packetDropReasonIsUndefined(packetDropped)
attr title "packet drop: undefined, packetBytes"
vector 64 ManetprotocolsShowcaseB.source.udp packetSent:vector(packetBytes) ETV
attr interpolationmode none
attr recordingmode vector(packetBytes)
attr source packetSent
attr title "packets sent, packetBytes"
vector 65 ManetprotocolsShowcaseB.source.udp packetReceived:vector(packetBytes) ETV
attr interpolationmode none
attr recordingmode vector(packetBytes)
attr source packetReceived
attr title "packets received, packetBytes"
vector 66 ManetprotocolsShowcaseB.source.udp passedUpPk:vector(count) ETV
attr interpolationmode none
attr recordingmode vector(count)
attr source packetSentToUpper
attr title "packets passed up, count"
vector 67 ManetprotocolsShowcaseB.source.udp droppedPkWrongPort:vector(count) ETV
attr interpolationmode none
attr recordingmode vector(count)
attr source packetDropReasonIsNoPortFound(packetDropped)
attr title "packets dropped (wrong port), count"
vector 68 ManetprotocolsShowcaseB.source.udp droppedPkBadChecksum:vector(count) ETV
attr interpolationmode none
attr recordingmode vector(count)
attr source packetDropReasonIsIncorrectlyReceived(packetDropped)
attr title "packets dropped (checksum error), count"
vector 69 ManetprotocolsShowcaseB.source.app[0] rtt:vector ETV
attr interpolationmode none
attr recordingmode vector
attr title "ping round-trip time"
attr unit s
vector 70 ManetprotocolsShowcaseB.source.app[0] numLost:vector ETV
attr interpolationmode none
attr recordingmode vector
attr title "pings lost"
vector 71 ManetprotocolsShowcaseB.source.app[0] numOutOfOrderArrivals:vector ETV
attr interpolationmode none
attr recordingmode vector
attr title "ping out-of-order arrivals"
vector 72 ManetprotocolsShowcaseB.source.app[0] pingTxSeq:vector ETV
attr interpolationmode none
attr recordingmode vector
attr title "ping tx seq"
vector 73 ManetprotocolsShowcaseB.source.app[0] pingRxSeq:vector ETV
attr interpolationmode none
attr recordingmode vector
attr title "ping rx seq"
vector 74 ManetprotocolsShowcaseB.node1.lo[0].lo rcvdPkFromHl:vector(packetBytes) ETV
attr interpolationmode none
attr recordingmode vector(packetBytes)
attr source packetReceivedFromUpper
attr title "packets received from higher layer, packetBytes"
vector 75 ManetprotocolsShowcaseB.node1.lo[0].lo passedUpPk:vector(packetBytes) ETV
attr interpolationmode none
attr recordingmode vector(packetBytes)
attr source packetSentToUpper
attr title "packets passed to higher layer, packetBytes"
vector 76 ManetprotocolsShowcaseB.node1.lo[0] packetDropInterfaceDown:vector(packetBytes) ETV
attr interpolationmode none
attr recordingmode vector(packetBytes)
attr source packetDropReasonIsInterfaceDown(packetDropped)
attr title "packet drops: interface down, packetBytes"
vector 77 ManetprotocolsShowcaseB.node1.lo[0] packetDropNoCarrier:vector(packetBytes) ETV
attr interpolationmode none
attr recordingmode vector(packetBytes)
attr source packetDropReasonIsNoCarrier(packetDropped)
attr title "packet drops: no carrier, packetBytes"
vector 78 ManetprotocolsShowcaseB.node1.wlan[0].mac.dcf.channelAccess.pendingQueue queueLength:vector ETV
attr autoWarmupFilter false
attr interpolationmode sample-hold
attr recordingmode vector
attr source "warmup(atomic(constant0(packetPushEnded) + count(packetPushStarted) - count(packetPulled) - count(packetRemoved) - count(packetDropped)))"
attr title "queue length"
attr unit pk
vector 79 ManetprotocolsShowcaseB.node1.wlan[0].mac.dcf.channelAccess.pendingQueue queueBitLength:vector ETV
attr autoWarmupFilter false
attr interpolationmode sample-hold
attr recordingmode vector
attr source "warmup(atomic(constant0(packetPushEnded) + sum(packetLength(packetPushStarted)) - sum(packetLength(packetPulled)) - sum(packetLength(packetRemoved)) - sum(packetLength(packetDropped))))"
attr title "queue bit length"
attr unit b
vector 80 ManetprotocolsShowcaseB.node1.wlan[0].mac.dcf.channelAccess.pendingQueue queueingTime:vector ETV
attr interpolationmode none
attr recordingmode vector
attr source queueingTime(packetPulled)
attr title "queueing times"
attr unit s
vector 81 ManetprotocolsShowcaseB.node1.wlan[0].mac.dcf.channelAccess.pendingQueue incomingPacketLengths:vector ETV
attr interpolationmode none
attr recordingmode vector
attr source packetLength(packetPushStarted)
attr title "incoming packet lengths"
attr unit b
vector 82 ManetprotocolsShowcaseB.node1.wlan[0].mac.dcf.channelAccess.pendingQueue incomingDataRate:vector ETV
attr interpolationmode linear
attr recordingmode vector
attr source throughput(packetPushStarted)
attr title "incoming datarate"
attr unit bps
vector 83 ManetprotocolsShowcaseB.node1.wlan[0].mac.dcf.channelAccess.pendingQueue outgoingPacketLengths:vector ETV
attr interpolationmode none
attr recordingmode vector
attr source packetLength(packetPulled)
attr title "outgoing packet lengths"
attr unit b
vector 84 ManetprotocolsShowcaseB.node1.wlan[0].mac.dcf.channelAccess.pendingQueue outgoingDataRate:vector ETV
attr interpolationmode linear
attr recordingmode vector
attr source throughput(packetPulled)
attr title "outgoing datarate"
attr unit bps
vector 85 ManetprotocolsShowcaseB.node1.wlan[0].mac.dcf.channelAccess.pendingQueue droppedPacketLengthsQueueOverflow:vector ETV
attr interpolationmode none
attr recordingmode vector
attr source packetLength(packetDropReasonIsQueueOverflow(packetDropped))
attr title "dropped packet lengths: queue overflow"
attr unit b
vector 86 ManetprotocolsShowcaseB.node1.wlan[0].mac.dcf.channelAccess.pendingQueue flowQueueingTime:vector ETV
attr interpolationmode none
attr recordingmode vector
attr source queueingTime(demuxFlow(packetPulled))
attr title "flow queueing times"
attr unit s
vector 87 ManetprotocolsShowcaseB.node1.wlan[0].mac.dcf.channelAccess.pendingQueue flowIncomingDataRate:vector ETV
attr interpolationmode linear
attr recordingmode vector
attr source throughput(flowPacketLength(demuxFlow(packetPushStarted)))
attr title "flow specific incoming data rate"
attr unit bps
vector 88 ManetprotocolsShowcaseB.node1.wlan[0].mac.dcf.channelAccess.pendingQueue flowOutgoingDataRate:vector ETV
attr interpolationmode linear
attr recordingmode vector
attr source throughput(flowPacketLength(demuxFlow(packetPulled)))
attr title "flow specific outgoing data rate"
attr unit bps
vector 89 ManetprotocolsShowcaseB.node1.wlan[0].mac.dcf.channelAccess.inProgressFrames queueingTime:vector ETV
attr interpolationmode none
attr recordingmode vector
attr source queueingTime(packetDequeued)
attr title "queueing times"
vector 90 ManetprotocolsShowcaseB.node1.wlan[0].mac.dcf.channelAccess.inProgressFrames queueLength:vector ETV
attr autoWarmupFilter false
attr interpolationmode sample-hold
attr recordingmode vector
attr source "warmup(count(packetEnqueued) - count(packetDequeued))"
attr title "queue length"
vector 91 ManetprotocolsShowcaseB.node1.wlan[0].mac.dcf.channelAccess.contention backoffPeriodGenerated:vector ETV
attr interpolationmode none
attr recordingmode vector
attr title "backoff periods"
vector 92 ManetprotocolsShowcaseB.node1.wlan[0].mac.dcf.channelAccess.contention backoffActive:vector ETV
attr autoWarmupFilter false
attr interpolationmode sample-hold
attr recordingmode vector
attr source warmup(count(backoffStarted)-count(backoffStopped))
attr title "backoff active"
vector 93 ManetprotocolsShowcaseB.node1.wlan[0].mac.dcf.channelAccess.contention stateChanged:vector ETV
attr enum IDLE,DEFER,IFS_AND_BACKOFF
attr interpolationmode none
attr recordingmode vector
attr title "contention state changed"
attr type enum
vector 94 ManetprotocolsShowcaseB.node1.wlan[0].mac.dcf.recipientMacDataService packetDropDuplicateDetected:vector(packetBytes) ETV
attr interpolationmode none
attr recordingmode vector(packetBytes)
attr source packetDropReasonIsDuplicateDetected(packetDropped)
attr title "packet drops: duplicate detected, packetBytes"
vector 95 ManetprotocolsShowcaseB.node1.wlan[0].mac.dcf.recoveryProcedure contentionWindowChanged:vector ETV
attr interpolationmode sample-hold
attr recordingmode vector
attr title "contention window"
vector 96 ManetprotocolsShowcaseB.node1.wlan[0].mac.dcf packetSentToPeer:vector(packetBytes) ETV
attr interpolationmode none
attr recordingmode vector(packetBytes)
attr title "packets sent, packetBytes"
vector 97 ManetprotocolsShowcaseB.node1.wlan[0].mac.dcf packetSentToPeerUnicast:vector(packetBytes) ETV
attr interpolationmode none
attr recordingmode vector(packetBytes)
attr source ieee80211Unicast(packetSentToPeer)
attr title "packets sent: unicast, packetBytes"
vector 98 ManetprotocolsShowcaseB.node1.wlan[0].mac.dcf packetSentToPeerMulticast:vector(packetBytes) ETV
attr interpolationmode none
attr recordingmode vector(packetBytes)
attr source ieee80211Multicast(packetSentToPeer)
attr title "packets sent: multicast, packetBytes"
vector 99 ManetprotocolsShowcaseB.node1.wlan[0].mac.dcf packetSentToPeerBroadcast:vector(packetBytes) ETV
attr interpolationmode none
attr recordingmode vector(packetBytes)
attr source ieee80211Broadcast(packetSentToPeer)
attr title "packets sent: broadcast , packetBytes"
vector 100 ManetprotocolsShowcaseB.node1.wlan[0].mac.dcf packetSentToPeerWithRetry:vector(packetBytes) ETV
attr interpolationmode none
attr recordingmode vector(packetBytes)
attr source ieee80211Retry(packetSentToPeer)
attr title "packets sent: with retry, packetBytes"
vector 101 ManetprotocolsShowcaseB.node1.wlan[0].mac.dcf packetSentToPeerWithoutRetry:vector(packetBytes) ETV
attr interpolationmode none
attr recordingmode vector(packetBytes)
attr source ieee80211NotRetry(packetSentToPeer)
attr title "packets sent: without retry, packetBytes"
vector 102 ManetprotocolsShowcaseB.node1.wlan[0].mac.dcf packetReceivedFromPeer:vector(packetBytes) ETV
attr interpolationmode none
attr recordingmode vector(packetBytes)
attr title "packets received, packetBytes"
vector 103 ManetprotocolsShowcaseB.node1.wlan[0].mac.dcf packetReceivedFromPeerUnicast:vector(packetBytes) ETV
attr interpolationmode none
attr recordingmode vector(packetBytes)
attr source ieee80211Unicast(packetReceivedFromPeer)
attr title "packets received: unicast, packetBytes"
vector 104 ManetprotocolsShowcaseB.node1.wlan[0].mac.dcf packetReceivedFromPeerMulticast:vector(packetBytes) ETV
attr interpolationmode none
attr recordingmode vector(packetBytes)
attr source ieee80211Multicast(packetReceivedFromPeer)
attr title "packets received: multicast, packetBytes"
vector 105 ManetprotocolsShowcaseB.node1.wlan[0].mac.dcf packetReceivedFromPeerBroadcast:vector(packetBytes) ETV
attr interpolationmode none
attr recordingmode vector(packetBytes)
attr source ieee80211Broadcast(packetReceivedFromPeer)
attr title "packets received: broadcast, packetBytes"
vector 106 ManetprotocolsShowcaseB.node1.wlan[0].mac.dcf packetReceivedFromPeerWithRetry:vector(packetBytes) ETV
attr interpolationmode none
attr recordingmode vector(packetBytes)
attr source ieee80211Retry(packetReceivedFromPeer)
attr title "packets received: with retry, packetBytes"
vector 107 ManetprotocolsShowcaseB.node1.wlan[0].mac.dcf packetReceivedFromPeerWithoutRetry:vector(packetBytes) ETV
attr interpolationmode none
attr recordingmode vector(packetBytes)
attr source ieee80211NotRetry(packetReceivedFromPeer)
attr title "packets received: without retry, packetBytes"
vector 108 ManetprotocolsShowcaseB.node1.wlan[0].mac.dcf packetDrop:vector(packetBytes) ETV
attr interpolationmode none
attr recordingmode vector(packetBytes)
attr source packetDropped
attr title "packet drops, packetBytes"
vector 109 ManetprotocolsShowcaseB.node1.wlan[0].mac.dcf packetDropNotAddressedToUs:vector(packetBytes) ETV
attr interpolationmode none
attr recordingmode vector(packetBytes)
attr source packetDropReasonIsNotAddressedToUs(packetDropped)
attr title "packet drops: not addressed to us, packetBytes"
vector 110 ManetprotocolsShowcaseB.node1.wlan[0].mac.dcf packetDropQueueOverflow:vector(packetBytes) ETV
attr interpolationmode none
attr recordingmode vector(packetBytes)
attr source packetDropReasonIsQueueOverflow(packetDropped)
attr title "packet drops: queue overflow, packetBytes"
vector 111 ManetprotocolsShowcaseB.node1.wlan[0].mac.dcf packetDropRetryLimitReached:vector(packetBytes) ETV
attr interpolationmode none
attr recordingmode vector(packetBytes)
attr source packetDropReasonIsRetryLimitReached(packetDropped)
attr title "packet drops: retry limit reached, packetBytes"
vector 112 ManetprotocolsShowcaseB.node1.wlan[0].mac.dcf frameSequenceActive:vector ETV
attr autoWarmupFilter false
attr interpolationmode sample-hold
attr recordingmode vector
attr source warmup(count(frameSequenceStarted)-count(frameSequenceFinished))
attr title "frame sequence active"
vector 113 ManetprotocolsShowcaseB.node1.wlan[0].mac.dcf datarateSelected:vector ETV
attr interpolationmode none
attr recordingmode vector
attr title "datarates selected"
vector 114 ManetprotocolsShowcaseB.node1.wlan[0].mac.rx nav:vector ETV
attr interpolationmode linear
attr recordingmode vector
attr source navChanged
attr title "network allocation vector"
vector 115 ManetprotocolsShowcaseB.node1.wlan[0].mac packetSentToUpper:vector(packetBytes) ETV
attr interpolationmode none
attr recordingmode vector(packetBytes)
attr title "packets sent to upper layer, packetBytes"
vector 116 ManetprotocolsShowcaseB.node1.wlan[0].mac packetSentToLower:vector(packetBytes) ETV
attr interpolationmode none
attr recordingmode vector(packetBytes)
attr title "packets sent to lower layer, packetBytes"
vector 117 ManetprotocolsShowcaseB.node1.wlan[0].mac packetReceivedFromUpper:vector(packetBytes) ETV
attr interpolationmode none
attr recordingmode vector(packetBytes)
attr title "packets received from upper layer, packetBytes"
vector 118 ManetprotocolsShowcaseB.node1.wlan[0].mac packetReceivedFromLower:vector(packetBytes) ETV
attr interpolationmode none
attr recordingmode vector(packetBytes)
attr title "packets received from lower layer, packetBytes"
vector 119 ManetprotocolsShowcaseB.node1.wlan[0].mac packetDrop:vector(packetBytes) ETV
attr interpolationmode none
attr recordingmode vector(packetBytes)
attr source packetDropped
attr title "packet drops, packetBytes"
vector 120 ManetprotocolsShowcaseB.node1.wlan[0].mac packetDropIncorrectlyReceived:vector(packetBytes) ETV
attr interpolationmode none
attr recordingmode vector(packetBytes)
attr source packetDropReasonIsIncorrectlyReceived(packetDropped)
attr title "packet drops: incorrectly received, packetBytes"
vector 121 ManetprotocolsShowcaseB.node1.wlan[0].mac packetDropNotAddressedToUs:vector(packetBytes) ETV
attr interpolationmode none
attr recordingmode vector(packetBytes)
attr source packetDropReasonIsNotAddressedToUs(packetDropped)
attr title "packet drops: not addressed to us, packetBytes"
vector 122 ManetprotocolsShowcaseB.node1.wlan[0].mac packetDropQueueOverflow:vector(packetBytes) ETV
attr interpolationmode none
attr recordingmode vector(packetBytes)
attr source packetDropReasonIsQueueOverflow(packetDropped)
attr title "packet drops: queue overflow, packetBytes"
vector 123 ManetprotocolsShowcaseB.node1.wlan[0].mac packetDropRetryLimitReached:vector(packetBytes) ETV
attr interpolationmode none
attr recordingmode vector(packetBytes)
attr source packetDropReasonIsRetryLimitReached(packetDropped)
attr title "packet drops: retry limit reached, packetBytes"
vector 124 ManetprotocolsShowcaseB.node1.wlan[0].mac packetDropDuplicateDetected:vector(packetBytes) ETV
attr interpolationmode none
attr recordingmode vector(packetBytes)
attr source packetDropReasonIsDuplicateDetected(packetDropped)
attr title "packet drops: duplicate detected, packetBytes"
vector 125 ManetprotocolsShowcaseB.node1.wlan[0].mac packetDropOther:vector(packetBytes) ETV
attr interpolationmode none
attr recordingmode vector(packetBytes)
attr source packetDropReasonIsOther(packetDropped)
attr title "packet drops: other, packetBytes"
vector 126 ManetprotocolsShowcaseB.node1.wlan[0].radio radioMode:vector ETV
attr interpolationmode sample-hold
attr recordingmode vector
attr source radioModeChanged
attr title "Radio mode"
vector 127 ManetprotocolsShowcaseB.node1.wlan[0].radio receptionState:vector ETV
attr interpolationmode sample-hold
attr recordingmode vector
attr source receptionStateChanged
attr title "Radio reception state"
vector 128 ManetprotocolsShowcaseB.node1.wlan[0].radio transmissionState:vector ETV
attr interpolationmode sample-hold
attr recordingmode vector
attr source transmissionStateChanged
attr title "Radio transmission state"
vector 129 ManetprotocolsShowcaseB.node1.wlan[0].radio radioChannel:vector ETV
attr interpolationmode sample-hold
attr recordingmode vector
attr source radioChannelChanged
attr title "Radio channel"
vector 130 ManetprotocolsShowcaseB.node1.wlan[0] packetDropInterfaceDown:vector(packetBytes) ETV
attr interpolationmode none
attr recordingmode vector(packetBytes)
attr source packetDropReasonIsInterfaceDown(packetDropped)
attr title "packet drops: interface down, packetBytes"
vector 131 ManetprotocolsShowcaseB.node1.wlan[0] packetDropNoCarrier:vector(packetBytes) ETV
attr interpolationmode none
attr recordingmode vector(packetBytes)
attr source packetDropReasonIsNoCarrier(packetDropped)
attr title "packet drops: no carrier, packetBytes"
vector 132 ManetprotocolsShowcaseB.node1.ipv4.ip packetDropAddressResolutionFailed:vector(packetBytes) ETV
attr interpolationmode none
attr recordingmode vector(packetBytes)
attr source packetDropReasonIsAddressResolutionFailed(packetDropped)
attr title "packet drop: address resolution failed, packetBytes"
vector 133 ManetprotocolsShowcaseB.node1.ipv4.ip packetDropHopLimitReached:vector(packetBytes) ETV
attr interpolationmode none
attr recordingmode vector(packetBytes)
attr source packetDropReasonIsHopLimitReached(packetDropped)
attr title "packet drop: hop limit reached, packetBytes"
vector 134 ManetprotocolsShowcaseB.node1.ipv4.ip packetDropForwardingDisabled:vector(packetBytes) ETV
attr interpolationmode none
attr recordingmode vector(packetBytes)
attr source packetDropReasonIsForwardingDisabled(packetDropped)
attr title "packet drop: forwarding disabled, packetBytes"
vector 135 ManetprotocolsShowcaseB.node1.ipv4.ip packetDropNoInterfaceFound:vector(packetBytes) ETV
attr interpolationmode none
attr recordingmode vector(packetBytes)
attr source packetDropReasonIsNoInterfaceFound(packetDropped)
attr title "packet drop: no interface found, packetBytes"
vector 136 ManetprotocolsShowcaseB.node1.ipv4.ip packetDropNoRouteFound:vector(packetBytes) ETV
attr interpolationmode none
attr recordingmode vector(packetBytes)
attr source packetDropReasonIsNoRouteFound(packetDropped)
attr title "packet drop: no route found, packetBytes"
vector 137 ManetprotocolsShowcaseB.node1.ipv4.ip packetDropUndefined:vector(packetBytes) ETV
attr interpolationmode none
attr recordingmode vector(packetBytes)
attr source packetDropReasonIsUndefined(packetDropped)
attr title "packet drop: undefined, packetBytes"
vector 138 ManetprotocolsShowcaseB.node1.udp packetSent:vector(packetBytes) ETV
attr interpolationmode none
attr recordingmode vector(packetBytes)
attr source packetSent
attr title "packets sent, packetBytes"
vector 139 ManetprotocolsShowcaseB.node1.udp packetReceived:vector(packetBytes) ETV
attr interpolationmode none
attr recordingmode vector(packetBytes)
attr source packetReceived
attr title "packets received, packetBytes"
vector 140 ManetprotocolsShowcaseB.node1.udp passedUpPk:vector(count) ETV
attr interpolationmode none
attr recordingmode vector(count)
attr source packetSentToUpper
attr title "packets passed up, count"
vector 141 ManetprotocolsShowcaseB.node1.udp droppedPkWrongPort:vector(count) ETV
attr interpolationmode none
attr recordingmode vector(count)
attr source packetDropReasonIsNoPortFound(packetDropped)
attr title "packets dropped (wrong port), count"
vector 142 ManetprotocolsShowcaseB.node1.udp droppedPkBadChecksum:vector(count) ETV
attr interpolationmode none
attr recordingmode vector(count)
attr source packetDropReasonIsIncorrectlyReceived(packetDropped)
attr title "packets dropped (checksum error), count"
vector 143 ManetprotocolsShowcaseB.node2.lo[0].lo rcvdPkFromHl:vector(packetBytes) ETV
attr interpolationmode none
attr recordingmode vector(packetBytes)
attr source packetReceivedFromUpper
attr title "packets received from higher layer, packetBytes"
vector 144 ManetprotocolsShowcaseB.node2.lo[0].lo passedUpPk:vector(packetBytes) ETV
attr interpolationmode none
attr recordingmode vector(packetBytes)
attr source packetSentToUpper
attr title "packets passed to higher layer, packetBytes"
vector 145 ManetprotocolsShowcaseB.node2.lo[0] packetDropInterfaceDown:vector(packetBytes) ETV
attr interpolationmode none
attr recordingmode vector(packetBytes)
attr source packetDropReasonIsInterfaceDown(packetDropped)
attr title "packet drops: interface down, packetBytes"
vector 146 ManetprotocolsShowcaseB.node2.lo[0] packetDropNoCarrier:vector(packetBytes) ETV
attr interpolationmode none
attr recordingmode vector(packetBytes)
attr source packetDropReasonIsNoCarrier(packetDropped)
attr title "packet drops: no carrier, packetBytes"
vector 147 ManetprotocolsShowcaseB.node2.wlan[0].mac.dcf.channelAccess.pendingQueue queueLength:vector ETV
attr autoWarmupFilter false
attr interpolationmode sample-hold
attr recordingmode vector
attr source "warmup(atomic(constant0(packetPushEnded) + count(packetPushStarted) - count(packetPulled) - count(packetRemoved) - count(packetDropped)))"
attr title "queue length"
attr unit pk
vector 148 ManetprotocolsShowcaseB.node2.wlan[0].mac.dcf.channelAccess.pendingQueue queueBitLength:vector ETV
attr autoWarmupFilter false
attr interpolationmode sample-hold
attr recordingmode vector
attr source "warmup(atomic(constant0(packetPushEnded) + sum(packetLength(packetPushStarted)) - sum(packetLength(packetPulled)) - sum(packetLength(packetRemoved)) - sum(packetLength(packetDropped))))"
attr title "queue bit length"
attr unit b
vector 149 ManetprotocolsShowcaseB.node2.wlan[0].mac.dcf.channelAccess.pendingQueue queueingTime:vector ETV
attr interpolationmode none
attr recordingmode vector
attr source queueingTime(packetPulled)
attr title "queueing times"
attr unit s
vector 150 ManetprotocolsShowcaseB.node2.wlan[0].mac.dcf.channelAccess.pendingQueue incomingPacketLengths:vector ETV
attr interpolationmode none
attr recordingmode vector
attr source packetLength(packetPushStarted)
attr title "incoming packet lengths"
attr unit b
vector 151 ManetprotocolsShowcaseB.node2.wlan[0].mac.dcf.channelAccess.pendingQueue incomingDataRate:vector ETV
attr interpolationmode linear
attr recordingmode vector
attr source throughput(packetPushStarted)
attr title "incoming datarate"
attr unit bps
vector 152 ManetprotocolsShowcaseB.node2.wlan[0].mac.dcf.channelAccess.pendingQueue outgoingPacketLengths:vector ETV
attr interpolationmode none
attr recordingmode vector
attr source packetLength(packetPulled)
attr title "outgoing packet lengths"
attr unit b
vector 153 ManetprotocolsShowcaseB.node2.wlan[0].mac.dcf.channelAccess.pendingQueue outgoingDataRate:vector ETV
attr interpolationmode linear
attr recordingmode vector
attr source throughput(packetPulled)
attr title "outgoing datarate"
attr unit bps
vector 154 ManetprotocolsShowcaseB.node2.wlan[0].mac.dcf.channelAccess.pendingQueue droppedPacketLengthsQueueOverflow:vector ETV
attr interpolationmode none
attr recordingmode vector
attr source packetLength(packetDropReasonIsQueueOverflow(packetDropped))
attr title "dropped packet lengths: queue overflow"
attr unit b
vector 155 ManetprotocolsShowcaseB.node2.wlan[0].mac.dcf.channelAccess.pendingQueue flowQueueingTime:vector ETV
attr interpolationmode none
attr recordingmode vector
attr source queueingTime(demuxFlow(packetPulled))
attr title "flow queueing times"
attr unit s
vector 156 ManetprotocolsShowcaseB.node2.wlan[0].mac.dcf.channelAccess.pendingQueue flowIncomingDataRate:vector ETV
attr interpolationmode linear
attr recordingmode vector
attr source throughput(flowPacketLength(demuxFlow(packetPushStarted)))
attr title "flow specific incoming data rate"
attr unit bps
vector 157 ManetprotocolsShowcaseB.node2.wlan[0].mac.dcf.channelAccess.pendingQueue flowOutgoingDataRate:vector ETV
attr interpolationmode linear
attr recordingmode vector
attr source throughput(flowPacketLength(demuxFlow(packetPulled)))
attr title "flow specific outgoing data rate"
attr unit bps
vector 158 ManetprotocolsShowcaseB.node2.wlan[0].mac.dcf.channelAccess.inProgressFrames queueingTime:vector ETV
attr interpolationmode none
attr recordingmode vector
attr source queueingTime(packetDequeued)
attr title "queueing times"
vector 159 ManetprotocolsShowcaseB.node2.wlan[0].mac.dcf.channelAccess.inProgressFrames queueLength:vector ETV
attr autoWarmupFilter false
attr interpolationmode sample-hold
attr recordingmode vector
attr source "warmup(count(packetEnqueued) - count(packetDequeued))"
attr title "queue length"
vector 160 ManetprotocolsShowcaseB.node2.wlan[0].mac.dcf.channelAccess.contention backoffPeriodGenerated:vector ETV
attr interpolationmode none
attr recordingmode vector
attr title "backoff periods"
vector 161 ManetprotocolsShowcaseB.node2.wlan[0].mac.dcf.channelAccess.contention backoffActive:vector ETV
attr autoWarmupFilter false
attr interpolationmode sample-hold
attr recordingmode vector
attr source warmup(count(backoffStarted)-count(backoffStopped))
attr title "backoff active"
vector 162 ManetprotocolsShowcaseB.node2.wlan[0].mac.dcf.channelAccess.contention stateChanged:vector ETV
attr enum IDLE,DEFER,IFS_AND_BACKOFF
attr interpolationmode none
attr recordingmode vector
attr title "contention state changed"
attr type enum
vector 163 ManetprotocolsShowcaseB.node2.wlan[0].mac.dcf.recipientMacDataService packetDropDuplicateDetected:vector(packetBytes) ETV
attr interpolationmode none
attr recordingmode vector(packetBytes)
attr source packetDropReasonIsDuplicateDetected(packetDropped)
attr title "packet drops: duplicate detected, packetBytes"
vector 164 ManetprotocolsShowcaseB.node2.wlan[0].mac.dcf.recoveryProcedure contentionWindowChanged:vector ETV
attr interpolationmode sample-hold
attr recordingmode vector
attr title "contention window"
vector 165 ManetprotocolsShowcaseB.node2.wlan[0].mac.dcf packetSentToPeer:vector(packetBytes) ETV
attr interpolationmode none
attr recordingmode vector(packetBytes)
attr title "packets sent, packetBytes"
vector 166 ManetprotocolsShowcaseB.node2.wlan[0].mac.dcf packetSentToPeerUnicast:vector(packetBytes) ETV
attr interpolationmode none
attr recordingmode vector(packetBytes)
attr source ieee80211Unicast(packetSentToPeer)
attr title "packets sent: unicast, packetBytes"
vector 167 ManetprotocolsShowcaseB.node2.wlan[0].mac.dcf packetSentToPeerMulticast:vector(packetBytes) ETV
attr interpolationmode none
attr recordingmode vector(packetBytes)
attr source ieee80211Multicast(packetSentToPeer)
attr title "packets sent: multicast, packetBytes"
vector 168 ManetprotocolsShowcaseB.node2.wlan[0].mac.dcf packetSentToPeerBroadcast:vector(packetBytes) ETV
attr interpolationmode none
attr recordingmode vector(packetBytes)
attr source ieee80211Broadcast(packetSentToPeer)
attr title "packets sent: broadcast , packetBytes"
vector 169 ManetprotocolsShowcaseB.node2.wlan[0].mac.dcf packetSentToPeerWithRetry:vector(packetBytes) ETV
attr interpolationmode none
attr recordingmode vector(packetBytes)
attr source ieee80211Retry(packetSentToPeer)
attr title "packets sent: with retry, packetBytes"
vector 170 ManetprotocolsShowcaseB.node2.wlan[0].mac.dcf packetSentToPeerWithoutRetry:vector(packetBytes) ETV
attr interpolationmode none
attr recordingmode vector(packetBytes)
attr source ieee80211NotRetry(packetSentToPeer)
attr title "packets sent: without retry, packetBytes"
vector 171 ManetprotocolsShowcaseB.node2.wlan[0].mac.dcf packetReceivedFromPeer:vector(packetBytes) ETV
attr interpolationmode none
attr recordingmode vector(packetBytes)
attr title "packets received, packetBytes"
vector 172 ManetprotocolsShowcaseB.node2.wlan[0].mac.dcf packetReceivedFromPeerUnicast:vector(packetBytes) ETV
attr interpolationmode none
attr recordingmode vector(packetBytes)
attr source ieee80211Unicast(packetReceivedFromPeer)
attr title "packets received: unicast, packetBytes"
vector 173 ManetprotocolsShowcaseB.node2.wlan[0].mac.dcf packetReceivedFromPeerMulticast:vector(packetBytes) ETV
attr interpolationmode none
attr recordingmode vector(packetBytes)
attr source ieee80211Multicast(packetReceivedFromPeer)
attr title "packets received: multicast, packetBytes"
vector 174 ManetprotocolsShowcaseB.node2.wlan[0].mac.dcf packetReceivedFromPeerBroadcast:vector(packetBytes) ETV
attr interpolationmode none
attr recordingmode vector(packetBytes)
attr source ieee80211Broadcast(packetReceivedFromPeer)
attr title "packets received: broadcast, packetBytes"
vector 175 ManetprotocolsShowcaseB.node2.wlan[0].mac.dcf packetReceivedFromPeerWithRetry:vector(packetBytes) ETV
attr interpolationmode none
attr recordingmode vector(packetBytes)
attr source ieee80211Retry(packetReceivedFromPeer)
attr title "packets received: with retry, packetBytes"
vector 176 ManetprotocolsShowcaseB.node2.wlan[0].mac.dcf packetReceivedFromPeerWithoutRetry:vector(packetBytes) ETV
attr interpolationmode none
attr recordingmode vector(packetBytes)
attr source ieee80211NotRetry(packetReceivedFromPeer)
attr title "packets received: without retry, packetBytes"
vector 177 ManetprotocolsShowcaseB.node2.wlan[0].mac.dcf packetDrop:vector(packetBytes) ETV
attr interpolationmode none
attr recordingmode vector(packetBytes)
attr source packetDropped
attr title "packet drops, packetBytes"
vector 178 ManetprotocolsShowcaseB.node2.wlan[0].mac.dcf packetDropNotAddressedToUs:vector(packetBytes) ETV
attr interpolationmode none
attr recordingmode vector(packetBytes)
attr source packetDropReasonIsNotAddressedToUs(packetDropped)
attr title "packet drops: not addressed to us, packetBytes"
vector 179 ManetprotocolsShowcaseB.node2.wlan[0].mac.dcf packetDropQueueOverflow:vector(packetBytes) ETV
attr interpolationmode none
attr recordingmode vector(packetBytes)
attr source packetDropReasonIsQueueOverflow(packetDropped)
attr title "packet drops: queue overflow, packetBytes"
vector 180 ManetprotocolsShowcaseB.node2.wlan[0].mac.dcf packetDropRetryLimitReached:vector(packetBytes) ETV
attr interpolationmode none
attr recordingmode vector(packetBytes)
attr source packetDropReasonIsRetryLimitReached(packetDropped)
attr title "packet drops: retry limit reached, packetBytes"
vector 181 ManetprotocolsShowcaseB.node2.wlan[0].mac.dcf frameSequenceActive:vector ETV
attr autoWarmupFilter false
attr interpolationmode sample-hold
attr recordingmode vector
attr source warmup(count(frameSequenceStarted)-count(frameSequenceFinished))
attr title "frame sequence active"
vector 182 ManetprotocolsShowcaseB.node2.wlan[0].mac.dcf datarateSelected:vector ETV
attr interpolationmode none
attr recordingmode vector
attr title "datarates selected"
vector 183 ManetprotocolsShowcaseB.node2.wlan[0].mac.rx nav:vector ETV
attr interpolationmode linear
attr recordingmode vector
attr source navChanged
attr title "network allocation vector"
vector 184 ManetprotocolsShowcaseB.node2.wlan[0].mac packetSentToUpper:vector(packetBytes) ETV
attr interpolationmode none
attr recordingmode vector(packetBytes)
attr title "packets sent to upper layer, packetBytes"
vector 185 ManetprotocolsShowcaseB.node2.wlan[0].mac packetSentToLower:vector(packetBytes) ETV
attr interpolationmode none
attr recordingmode vector(packetBytes)
attr title "packets sent to lower layer, packetBytes"
vector 186 ManetprotocolsShowcaseB.node2.wlan[0].mac packetReceivedFromUpper:vector(packetBytes) ETV
attr interpolationmode none
attr recordingmode vector(packetBytes)
attr title "packets received from upper layer, packetBytes"
vector 187 ManetprotocolsShowcaseB.node2.wlan[0].mac packetReceivedFromLower:vector(packetBytes) ETV
attr interpolationmode none
attr recordingmode vector(packetBytes)
attr title "packets received from lower layer, packetBytes"
vector 188 ManetprotocolsShowcaseB.node2.wlan[0].mac packetDrop:vector(packetBytes) ETV
attr interpolationmode none
attr recordingmode vector(packetBytes)
attr source packetDropped
attr title "packet drops, packetBytes"
vector 189 ManetprotocolsShowcaseB.node2.wlan[0].mac packetDropIncorrectlyReceived:vector(packetBytes) ETV
attr interpolationmode none
attr recordingmode vector(packetBytes)
attr source packetDropReasonIsIncorrectlyReceived(packetDropped)
attr title "packet drops: incorrectly received, packetBytes"
vector 190 ManetprotocolsShowcaseB.node2.wlan[0].mac packetDropNotAddressedToUs:vector(packetBytes) ETV
attr interpolationmode none
attr recordingmode vector(packetBytes)
attr source packetDropReasonIsNotAddressedToUs(packetDropped)
attr title "packet drops: not addressed to us, packetBytes"
vector 191 ManetprotocolsShowcaseB.node2.wlan[0].mac packetDropQueueOverflow:vector(packetBytes) ETV
attr interpolationmode none
attr recordingmode vector(packetBytes)
attr source packetDropReasonIsQueueOverflow(packetDropped)
attr title "packet drops: queue overflow, packetBytes"
vector 192 ManetprotocolsShowcaseB.node2.wlan[0].mac packetDropRetryLimitReached:vector(packetBytes) ETV
attr interpolationmode none
attr recordingmode vector(packetBytes)
attr source packetDropReasonIsRetryLimitReached(packetDropped)
attr title "packet drops: retry limit reached, packetBytes"
vector 193 ManetprotocolsShowcaseB.node2.wlan[0].mac packetDropDuplicateDetected:vector(packetBytes) ETV
attr interpolationmode none
attr recordingmode vector(packetBytes)
attr source packetDropReasonIsDuplicateDetected(packetDropped)
attr title "packet drops: duplicate detected, packetBytes"
vector 194 ManetprotocolsShowcaseB.node2.wlan[0].mac packetDropOther:vector(packetBytes) ETV
attr interpolationmode none
attr recordingmode vector(packetBytes)
attr source packetDropReasonIsOther(packetDropped)
attr title "packet drops: other, packetBytes"
vector 195 ManetprotocolsShowcaseB.node2.wlan[0].radio radioMode:vector ETV
attr interpolationmode sample-hold
attr recordingmode vector
attr source radioModeChanged
attr title "Radio mode"
vector 196 ManetprotocolsShowcaseB.node2.wlan[0].radio receptionState:vector ETV
attr interpolationmode sample-hold
attr recordingmode vector
attr source receptionStateChanged
attr title "Radio reception state"
vector 197 ManetprotocolsShowcaseB.node2.wlan[0].radio transmissionState:vector ETV
attr interpolationmode sample-hold
attr recordingmode vector
attr source transmissionStateChanged
attr title "Radio transmission state"
vector 198 ManetprotocolsShowcaseB.node2.wlan[0].radio radioChannel:vector ETV
attr interpolationmode sample-hold
attr recordingmode vector
attr source radioChannelChanged
attr title "Radio channel"
vector 199 ManetprotocolsShowcaseB.node2.wlan[0] packetDropInterfaceDown:vector(packetBytes) ETV
attr interpolationmode none
attr recordingmode vector(packetBytes)
attr source packetDropReasonIsInterfaceDown(packetDropped)
attr title "packet drops: interface down, packetBytes"
vector 200 ManetprotocolsShowcaseB.node2.wlan[0] packetDropNoCarrier:vector(packetBytes) ETV
attr interpolationmode none
attr recordingmode vector(packetBytes)
attr source packetDropReasonIsNoCarrier(packetDropped)
attr title "packet drops: no carrier, packetBytes"
vector 201 ManetprotocolsShowcaseB.node2.ipv4.ip packetDropAddressResolutionFailed:vector(packetBytes) ETV
attr interpolationmode none
attr recordingmode vector(packetBytes)
attr source packetDropReasonIsAddressResolutionFailed(packetDropped)
attr title "packet drop: address resolution failed, packetBytes"
vector 202 ManetprotocolsShowcaseB.node2.ipv4.ip packetDropHopLimitReached:vector(packetBytes) ETV
attr interpolationmode none
attr recordingmode vector(packetBytes)
attr source packetDropReasonIsHopLimitReached(packetDropped)
attr title "packet drop: hop limit reached, packetBytes"
vector 203 ManetprotocolsShowcaseB.node2.ipv4.ip packetDropForwardingDisabled:vector(packetBytes) ETV
attr interpolationmode none
attr recordingmode vector(packetBytes)
attr source packetDropReasonIsForwardingDisabled(packetDropped)
attr title "packet drop: forwarding disabled, packetBytes"
vector 204 ManetprotocolsShowcaseB.node2.ipv4.ip packetDropNoInterfaceFound:vector(packetBytes) ETV
attr interpolationmode none
attr recordingmode vector(packetBytes)
attr source packetDropReasonIsNoInterfaceFound(packetDropped)
attr title "packet drop: no interface found, packetBytes"
vector 205 ManetprotocolsShowcaseB.node2.ipv4.ip packetDropNoRouteFound:vector(packetBytes) ETV
attr interpolationmode none
attr recordingmode vector(packetBytes)
attr source packetDropReasonIsNoRouteFound(packetDropped)
attr title "packet drop: no route found, packetBytes"
vector 206 ManetprotocolsShowcaseB.node2.ipv4.ip packetDropUndefined:vector(packetBytes) ETV
attr interpolationmode none
attr recordingmode vector(packetBytes)
attr source packetDropReasonIsUndefined(packetDropped)
attr title "packet drop: undefined, packetBytes"
vector 207 ManetprotocolsShowcaseB.node2.udp packetSent:vector(packetBytes) ETV
attr interpolationmode none
attr recordingmode vector(packetBytes)
attr source packetSent
attr title "packets sent, packetBytes"
vector 208 ManetprotocolsShowcaseB.node2.udp packetReceived:vector(packetBytes) ETV
attr interpolationmode none
attr recordingmode vector(packetBytes)
attr source packetReceived
attr title "packets received, packetBytes"
vector 209 ManetprotocolsShowcaseB.node2.udp passedUpPk:vector(count) ETV
attr interpolationmode none
attr recordingmode vector(count)
attr source packetSentToUpper
attr title "packets passed up, count"
vector 210 ManetprotocolsShowcaseB.node2.udp droppedPkWrongPort:vector(count) ETV
attr interpolationmode none
attr recordingmode vector(count)
attr source packetDropReasonIsNoPortFound(packetDropped)
attr title "packets dropped (wrong port), count"
vector 211 ManetprotocolsShowcaseB.node2.udp droppedPkBadChecksum:vector(count) ETV
attr interpolationmode none
attr recordingmode vector(count)
attr source packetDropReasonIsIncorrectlyReceived(packetDropped)
attr title "packets dropped (checksum error), count"
vector 212 ManetprotocolsShowcaseB.node3.lo[0].lo rcvdPkFromHl:vector(packetBytes) ETV
attr interpolationmode none
attr recordingmode vector(packetBytes)
attr source packetReceivedFromUpper
attr title "packets received from higher layer, packetBytes"
vector 213 ManetprotocolsShowcaseB.node3.lo[0].lo passedUpPk:vector(packetBytes) ETV
attr interpolationmode none
attr recordingmode vector(packetBytes)
attr source packetSentToUpper
attr title "packets passed to higher layer, packetBytes"
vector 214 ManetprotocolsShowcaseB.node3.lo[0] packetDropInterfaceDown:vector(packetBytes) ETV
attr interpolationmode none
attr recordingmode vector(packetBytes)
attr source packetDropReasonIsInterfaceDown(packetDropped)
attr title "packet drops: interface down, packetBytes"
vector 215 ManetprotocolsShowcaseB.node3.lo[0] packetDropNoCarrier:vector(packetBytes) ETV
attr interpolationmode none
attr recordingmode vector(packetBytes)
attr source packetDropReasonIsNoCarrier(packetDropped)
attr title "packet drops: no carrier, packetBytes"
vector 216 ManetprotocolsShowcaseB.node3.wlan[0].mac.dcf.channelAccess.pendingQueue queueLength:vector ETV
attr autoWarmupFilter false
attr interpolationmode sample-hold
attr recordingmode vector
attr source "warmup(atomic(constant0(packetPushEnded) + count(packetPushStarted) - count(packetPulled) - count(packetRemoved) - count(packetDropped)))"
attr title "queue length"
attr unit pk
vector 217 ManetprotocolsShowcaseB.node3.wlan[0].mac.dcf.channelAccess.pendingQueue queueBitLength:vector ETV
attr autoWarmupFilter false
attr interpolationmode sample-hold
attr recordingmode vector
attr source "warmup(atomic(constant0(packetPushEnded) + sum(packetLength(packetPushStarted)) - sum(packetLength(packetPulled)) - sum(packetLength(packetRemoved)) - sum(packetLength(packetDropped))))"
attr title "queue bit length"
attr unit b
vector 218 ManetprotocolsShowcaseB.node3.wlan[0].mac.dcf.channelAccess.pendingQueue queueingTime:vector ETV
attr interpolationmode none
attr recordingmode vector
attr source queueingTime(packetPulled)
attr title "queueing times"
attr unit s
vector 219 ManetprotocolsShowcaseB.node3.wlan[0].mac.dcf.channelAccess.pendingQueue incomingPacketLengths:vector ETV
attr interpolationmode none
attr recordingmode vector
attr source packetLength(packetPushStarted)
attr title "incoming packet lengths"
attr unit b
vector 220 ManetprotocolsShowcaseB.node3.wlan[0].mac.dcf.channelAccess.pendingQueue incomingDataRate:vector ETV
attr interpolationmode linear
attr recordingmode vector
attr source throughput(packetPushStarted)
attr title "incoming datarate"
attr unit bps
vector 221 ManetprotocolsShowcaseB.node3.wlan[0].mac.dcf.channelAccess.pendingQueue outgoingPacketLengths:vector ETV
attr interpolationmode none
attr recordingmode vector
attr source packetLength(packetPulled)
attr title "outgoing packet lengths"
attr unit b
vector 222 ManetprotocolsShowcaseB.node3.wlan[0].mac.dcf.channelAccess.pendingQueue outgoingDataRate:vector ETV
attr interpolationmode linear
attr recordingmode vector
attr source throughput(packetPulled)
attr title "outgoing datarate"
attr unit bps
vector 223 ManetprotocolsShowcaseB.node3.wlan[0].mac.dcf.channelAccess.pendingQueue droppedPacketLengthsQueueOverflow:vector ETV
attr interpolationmode none
attr recordingmode vector
attr source packetLength(packetDropReasonIsQueueOverflow(packetDropped))
attr title "dropped packet lengths: queue overflow"
attr unit b
vector 224 ManetprotocolsShowcaseB.node3.wlan[0].mac.dcf.channelAccess.pendingQueue flowQueueingTime:vector ETV
attr interpolationmode none
attr recordingmode vector
attr source queueingTime(demuxFlow(packetPulled))
attr title "flow queueing times"
attr unit s
vector 225 ManetprotocolsShowcaseB.node3.wlan[0].mac.dcf.channelAccess.pendingQueue flowIncomingDataRate:vector ETV
attr interpolationmode linear
attr recordingmode vector
attr source throughput(flowPacketLength(demuxFlow(packetPushStarted)))
attr title "flow specific incoming data rate"
attr unit bps
vector 226 ManetprotocolsShowcaseB.node3.wlan[0].mac.dcf.channelAccess.pendingQueue flowOutgoingDataRate:vector ETV
attr interpolationmode linear
attr recordingmode vector
attr source throughput(flowPacketLength(demuxFlow(packetPulled)))
attr title "flow specific outgoing data rate"
attr unit bps
vector 227 ManetprotocolsShowcaseB.node3.wlan[0].mac.dcf.channelAccess.inProgressFrames queueingTime:vector ETV
attr interpolationmode none
attr recordingmode vector
attr source queueingTime(packetDequeued)
attr title "queueing times"
vector 228 ManetprotocolsShowcaseB.node3.wlan[0].mac.dcf.channelAccess.inProgressFrames queueLength:vector ETV
attr autoWarmupFilter false
attr interpolationmode sample-hold
attr recordingmode vector
attr source "warmup(count(packetEnqueued) - count(packetDequeued))"
attr title "queue length"
vector 229 ManetprotocolsShowcaseB.node3.wlan[0].mac.dcf.channelAccess.contention backoffPeriodGenerated:vector ETV
attr interpolationmode none
attr recordingmode vector
attr title "backoff periods"
vector 230 ManetprotocolsShowcaseB.node3.wlan[0].mac.dcf.channelAccess.contention backoffActive:vector ETV
attr autoWarmupFilter false
attr interpolationmode sample-hold
attr recordingmode vector
attr source warmup(count(backoffStarted)-count(backoffStopped))
attr title "backoff active"
vector 231 ManetprotocolsShowcaseB.node3.wlan[0].mac.dcf.channelAccess.contention stateChanged:vector ETV
attr enum IDLE,DEFER,IFS_AND_BACKOFF
attr interpolationmode none
attr recordingmode vector
attr title "contention state changed"
attr type enum
vector 232 ManetprotocolsShowcaseB.node3.wlan[0].mac.dcf.recipientMacDataService packetDropDuplicateDetected:vector(packetBytes) ETV
attr interpolationmode none
attr recordingmode vector(packetBytes)
attr source packetDropReasonIsDuplicateDetected(packetDropped)
attr title "packet drops: duplicate detected, packetBytes"
vector 233 ManetprotocolsShowcaseB.node3.wlan[0].mac.dcf.recoveryProcedure contentionWindowChanged:vector ETV
attr interpolationmode sample-hold
attr recordingmode vector
attr title "contention window"
vector 234 ManetprotocolsShowcaseB.node3.wlan[0].mac.dcf packetSentToPeer:vector(packetBytes) ETV
attr interpolationmode none
attr recordingmode vector(packetBytes)
attr title "packets sent, packetBytes"
vector 235 ManetprotocolsShowcaseB.node3.wlan[0].mac.dcf packetSentToPeerUnicast:vector(packetBytes) ETV
attr interpolationmode none
attr recordingmode vector(packetBytes)
attr source ieee80211Unicast(packetSentToPeer)
attr title "packets sent: unicast, packetBytes"
vector 236 ManetprotocolsShowcaseB.node3.wlan[0].mac.dcf packetSentToPeerMulticast:vector(packetBytes) ETV
attr interpolationmode none
attr recordingmode vector(packetBytes)
attr source ieee80211Multicast(packetSentToPeer)
attr title "packets sent: multicast, packetBytes"
vector 237 ManetprotocolsShowcaseB.node3.wlan[0].mac.dcf packetSentToPeerBroadcast:vector(packetBytes) ETV
attr interpolationmode none
attr recordingmode vector(packetBytes)
attr source ieee80211Broadcast(packetSentToPeer)
attr title "packets sent: broadcast , packetBytes"
vector 238 ManetprotocolsShowcaseB.node3.wlan[0].mac.dcf packetSentToPeerWithRetry:vector(packetBytes) ETV
attr interpolationmode none
attr recordingmode vector(packetBytes)
attr source ieee80211Retry(packetSentToPeer)
attr title "packets sent: with retry, packetBytes"
vector 239 ManetprotocolsShowcaseB.node3.wlan[0].mac.dcf packetSentToPeerWithoutRetry:vector(packetBytes) ETV
attr interpolationmode none
attr recordingmode vector(packetBytes)
attr source ieee80211NotRetry(packetSentToPeer)
attr title "packets sent: without retry, packetBytes"
vector 240 ManetprotocolsShowcaseB.node3.wlan[0].mac.dcf packetReceivedFromPeer:vector(packetBytes) ETV
attr interpolationmode none
attr recordingmode vector(packetBytes)
attr title "packets received, packetBytes"
vector 241 ManetprotocolsShowcaseB.node3.wlan[0].mac.dcf packetReceivedFromPeerUnicast:vector(packetBytes) ETV
attr interpolationmode none
attr recordingmode vector(packetBytes)
attr source ieee80211Unicast(packetReceivedFromPeer)
attr title "packets received: unicast, packetBytes"
vector 242 ManetprotocolsShowcaseB.node3.wlan[0].mac.dcf packetReceivedFromPeerMulticast:vector(packetBytes) ETV
attr interpolationmode none
attr recordingmode vector(packetBytes)
attr source ieee80211Multicast(packetReceivedFromPeer)
attr title "packets received: multicast, packetBytes"
vector 243 ManetprotocolsShowcaseB.node3.wlan[0].mac.dcf packetReceivedFromPeerBroadcast:vector(packetBytes) ETV
attr interpolationmode none
attr recordingmode vector(packetBytes)
attr source ieee80211Broadcast(packetReceivedFromPeer)
attr title "packets received: broadcast, packetBytes"
vector 244 ManetprotocolsShowcaseB.node3.wlan[0].mac.dcf packetReceivedFromPeerWithRetry:vector(packetBytes) ETV
attr interpolationmode none
attr recordingmode vector(packetBytes)
attr source ieee80211Retry(packetReceivedFromPeer)
attr title "packets received: with retry, packetBytes"
vector 245 ManetprotocolsShowcaseB.node3.wlan[0].mac.dcf packetReceivedFromPeerWithoutRetry:vector(packetBytes) ETV
attr interpolationmode none
attr recordingmode vector(packetBytes)
attr source ieee80211NotRetry(packetReceivedFromPeer)
attr title "packets received: without retry, packetBytes"
vector 246 ManetprotocolsShowcaseB.node3.wlan[0].mac.dcf packetDrop:vector(packetBytes) ETV
attr interpolationmode none
attr recordingmode vector(packetBytes)
attr source packetDropped
attr title "packet drops, packetBytes"
vector 247 ManetprotocolsShowcaseB.node3.wlan[0].mac.dcf packetDropNotAddressedToUs:vector(packetBytes) ETV
attr interpolationmode none
attr recordingmode vector(packetBytes)
attr source packetDropReasonIsNotAddressedToUs(packetDropped)
attr title "packet drops: not addressed to us, packetBytes"
vector 248 ManetprotocolsShowcaseB.node3.wlan[0].mac.dcf packetDropQueueOverflow:vector(packetBytes) ETV
attr interpolationmode none
attr recordingmode vector(packetBytes)
attr source packetDropReasonIsQueueOverflow(packetDropped)
attr title "packet drops: queue overflow, packetBytes"
vector 249 ManetprotocolsShowcaseB.node3.wlan[0].mac.dcf packetDropRetryLimitReached:vector(packetBytes) ETV
attr interpolationmode none
attr recordingmode vector(packetBytes)
attr source packetDropReasonIsRetryLimitReached(packetDropped)
attr title "packet drops: retry limit reached, packetBytes"
vector 250 ManetprotocolsShowcaseB.node3.wlan[0].mac.dcf frameSequenceActive:vector ETV
attr autoWarmupFilter false
attr interpolationmode sample-hold
attr recordingmode vector
attr source warmup(count(frameSequenceStarted)-count(frameSequenceFinished))
attr title "frame sequence active"
vector 251 ManetprotocolsShowcaseB.node3.wlan[0].mac.dcf datarateSelected:vector ETV
attr interpolationmode none
attr recordingmode vector
attr title "datarates selected"
vector 252 ManetprotocolsShowcaseB.node3.wlan[0].mac.rx nav:vector ETV
attr interpolationmode linear
attr recordingmode vector
attr source navChanged
attr title "network allocation vector"
vector 253 ManetprotocolsShowcaseB.node3.wlan[0].mac packetSentToUpper:vector(packetBytes) ETV
attr interpolationmode none
attr recordingmode vector(packetBytes)
attr title "packets sent to upper layer, packetBytes"
vector 254 ManetprotocolsShowcaseB.node3.wlan[0].mac packetSentToLower:vector(packetBytes) ETV
attr interpolationmode none
attr recordingmode vector(packetBytes)
attr title "packets sent to lower layer, packetBytes"
vector 255 ManetprotocolsShowcaseB.node3.wlan[0].mac packetReceivedFromUpper:vector(packetBytes) ETV
attr interpolationmode none
attr recordingmode vector(packetBytes)
attr title "packets received from upper layer, packetBytes"
vector 256 ManetprotocolsShowcaseB.node3.wlan[0].mac packetReceivedFromLower:vector(packetBytes) ETV
attr interpolationmode none
attr recordingmode vector(packetBytes)
attr title "packets received from lower layer, packetBytes"
vector 257 ManetprotocolsShowcaseB.node3.wlan[0].mac packetDrop:vector(packetBytes) ETV
attr interpolationmode none
attr recordingmode vector(packetBytes)
attr source packetDropped
attr title "packet drops, packetBytes"
vector 258 ManetprotocolsShowcaseB.node3.wlan[0].mac packetDropIncorrectlyReceived:vector(packetBytes) ETV
attr interpolationmode none
attr recordingmode vector(packetBytes)
attr source packetDropReasonIsIncorrectlyReceived(packetDropped)
attr title "packet drops: incorrectly received, packetBytes"
vector 259 ManetprotocolsShowcaseB.node3.wlan[0].mac packetDropNotAddressedToUs:vector(packetBytes) ETV
attr interpolationmode none
attr recordingmode vector(packetBytes)
attr source packetDropReasonIsNotAddressedToUs(packetDropped)
attr title "packet drops: not addressed to us, packetBytes"
vector 260 ManetprotocolsShowcaseB.node3.wlan[0].mac packetDropQueueOverflow:vector(packetBytes) ETV
attr interpolationmode none
attr recordingmode vector(packetBytes)
attr source packetDropReasonIsQueueOverflow(packetDropped)
attr title "packet drops: queue overflow, packetBytes"
vector 261 ManetprotocolsShowcaseB.node3.wlan[0].mac packetDropRetryLimitReached:vector(packetBytes) ETV
attr interpolationmode none
attr recordingmode vector(packetBytes)
attr source packetDropReasonIsRetryLimitReached(packetDropped)
attr title "packet drops: retry limit reached, packetBytes"
vector 262 ManetprotocolsShowcaseB.node3.wlan[0].mac packetDropDuplicateDetected:vector(packetBytes) ETV
attr interpolationmode none
attr recordingmode vector(packetBytes)
attr source packetDropReasonIsDuplicateDetected(packetDropped)
attr title "packet drops: duplicate detected, packetBytes"
vector 263 ManetprotocolsShowcaseB.node3.wlan[0].mac packetDropOther:vector(packetBytes) ETV
attr interpolationmode none
attr recordingmode vector(packetBytes)
attr source packetDropReasonIsOther(packetDropped)
attr title "packet drops: other, packetBytes"
vector 264 ManetprotocolsShowcaseB.node3.wlan[0].radio radioMode:vector ETV
attr interpolationmode sample-hold
attr recordingmode vector
attr source radioModeChanged
attr title "Radio mode"
vector 265 ManetprotocolsShowcaseB.node3.wlan[0].radio receptionState:vector ETV
attr interpolationmode sample-hold
attr recordingmode vector
attr source receptionStateChanged
attr title "Radio reception state"
vector 266 ManetprotocolsShowcaseB.node3.wlan[0].radio transmissionState:vector ETV
attr interpolationmode sample-hold
attr recordingmode vector
attr source transmissionStateChanged
attr title "Radio transmission state"
vector 267 ManetprotocolsShowcaseB.node3.wlan[0].radio radioChannel:vector ETV
attr interpolationmode sample-hold
attr recordingmode vector
attr source radioChannelChanged
attr title "Radio channel"
vector 268 ManetprotocolsShowcaseB.node3.wlan[0] packetDropInterfaceDown:vector(packetBytes) ETV
attr interpolationmode none
attr recordingmode vector(packetBytes)
attr source packetDropReasonIsInterfaceDown(packetDropped)
attr title "packet drops: interface down, packetBytes"
vector 269 ManetprotocolsShowcaseB.node3.wlan[0] packetDropNoCarrier:vector(packetBytes) ETV
attr interpolationmode none
attr recordingmode vector(packetBytes)
attr source packetDropReasonIsNoCarrier(packetDropped)
attr title "packet drops: no carrier, packetBytes"
vector 270 ManetprotocolsShowcaseB.node3.ipv4.ip packetDropAddressResolutionFailed:vector(packetBytes) ETV
attr interpolationmode none
attr recordingmode vector(packetBytes)
attr source packetDropReasonIsAddressResolutionFailed(packetDropped)
attr title "packet drop: address resolution failed, packetBytes"
vector 271 ManetprotocolsShowcaseB.node3.ipv4.ip packetDropHopLimitReached:vector(packetBytes) ETV
attr interpolationmode none
attr recordingmode vector(packetBytes)
attr source packetDropReasonIsHopLimitReached(packetDropped)
attr title "packet drop: hop limit reached, packetBytes"
vector 272 ManetprotocolsShowcaseB.node3.ipv4.ip packetDropForwardingDisabled:vector(packetBytes) ETV
attr interpolationmode none
attr recordingmode vector(packetBytes)
attr source packetDropReasonIsForwardingDisabled(packetDropped)
attr title "packet drop: forwarding disabled, packetBytes"
vector 273 ManetprotocolsShowcaseB.node3.ipv4.ip packetDropNoInterfaceFound:vector(packetBytes) ETV
attr interpolationmode none
attr recordingmode vector(packetBytes)
attr source packetDropReasonIsNoInterfaceFound(packetDropped)
attr title "packet drop: no interface found, packetBytes"
vector 274 ManetprotocolsShowcaseB.node3.ipv4.ip packetDropNoRouteFound:vector(packetBytes) ETV
attr interpolationmode none
attr recordingmode vector(packetBytes)
attr source packetDropReasonIsNoRouteFound(packetDropped)
attr title "packet drop: no route found, packetBytes"
vector 275 ManetprotocolsShowcaseB.node3.ipv4.ip packetDropUndefined:vector(packetBytes) ETV
attr interpolationmode none
attr recordingmode vector(packetBytes)
attr source packetDropReasonIsUndefined(packetDropped)
attr title "packet drop: undefined, packetBytes"
vector 276 ManetprotocolsShowcaseB.node3.udp packetSent:vector(packetBytes) ETV
attr interpolationmode none
attr recordingmode vector(packetBytes)
attr source packetSent
attr title "packets sent, packetBytes"
vector 277 ManetprotocolsShowcaseB.node3.udp packetReceived:vector(packetBytes) ETV
attr interpolationmode none
attr recordingmode vector(packetBytes)
attr source packetReceived
attr title "packets received, packetBytes"
vector 278 ManetprotocolsShowcaseB.node3.udp passedUpPk:vector(count) ETV
attr interpolationmode none
attr recordingmode vector(count)
attr source packetSentToUpper
attr title "packets passed up, count"
vector 279 ManetprotocolsShowcaseB.node3.udp droppedPkWrongPort:vector(count) ETV
attr interpolationmode none
attr recordingmode vector(count)
attr source packetDropReasonIsNoPortFound(packetDropped)
attr title "packets dropped (wrong port), count"
vector 280 ManetprotocolsShowcaseB.node3.udp droppedPkBadChecksum:vector(count) ETV
attr interpolationmode none
attr recordingmode vector(count)
attr source packetDropReasonIsIncorrectlyReceived(packetDropped)
attr title "packets dropped (checksum error), count"
vector 281 ManetprotocolsShowcaseB.node4.lo[0].lo rcvdPkFromHl:vector(packetBytes) ETV
attr interpolationmode none
attr recordingmode vector(packetBytes)
attr source packetReceivedFromUpper
attr title "packets received from higher layer, packetBytes"
vector 282 ManetprotocolsShowcaseB.node4.lo[0].lo passedUpPk:vector(packetBytes) ETV
attr interpolationmode none
attr recordingmode vector(packetBytes)
attr source packetSentToUpper
attr title "packets passed to higher layer, packetBytes"
vector 283 ManetprotocolsShowcaseB.node4.lo[0] packetDropInterfaceDown:vector(packetBytes) ETV
attr interpolationmode none
attr recordingmode vector(packetBytes)
attr source packetDropReasonIsInterfaceDown(packetDropped)
attr title "packet drops: interface down, packetBytes"
vector 284 ManetprotocolsShowcaseB.node4.lo[0] packetDropNoCarrier:vector(packetBytes) ETV
attr interpolationmode none
attr recordingmode vector(packetBytes)
attr source packetDropReasonIsNoCarrier(packetDropped)
attr title "packet drops: no carrier, packetBytes"
vector 285 ManetprotocolsShowcaseB.node4.wlan[0].mac.dcf.channelAccess.pendingQueue queueLength:vector ETV
attr autoWarmupFilter false
attr interpolationmode sample-hold
attr recordingmode vector
attr source "warmup(atomic(constant0(packetPushEnded) + count(packetPushStarted) - count(packetPulled) - count(packetRemoved) - count(packetDropped)))"
attr title "queue length"
attr unit pk
vector 286 ManetprotocolsShowcaseB.node4.wlan[0].mac.dcf.channelAccess.pendingQueue queueBitLength:vector ETV
attr autoWarmupFilter false
attr interpolationmode sample-hold
attr recordingmode vector
attr source "warmup(atomic(constant0(packetPushEnded) + sum(packetLength(packetPushStarted)) - sum(packetLength(packetPulled)) - sum(packetLength(packetRemoved)) - sum(packetLength(packetDropped))))"
attr title "queue bit length"
attr unit b
vector 287 ManetprotocolsShowcaseB.node4.wlan[0].mac.dcf.channelAccess.pendingQueue queueingTime:vector ETV
attr interpolationmode none
attr recordingmode vector
attr source queueingTime(packetPulled)
attr title "queueing times"
attr unit s
vector 288 ManetprotocolsShowcaseB.node4.wlan[0].mac.dcf.channelAccess.pendingQueue incomingPacketLengths:vector ETV
attr interpolationmode none
attr recordingmode vector
attr source packetLength(packetPushStarted)
attr title "incoming packet lengths"
attr unit b
vector 289 ManetprotocolsShowcaseB.node4.wlan[0].mac.dcf.channelAccess.pendingQueue incomingDataRate:vector ETV
attr interpolationmode linear
attr recordingmode vector
attr source throughput(packetPushStarted)
attr title "incoming datarate"
attr unit bps
vector 290 ManetprotocolsShowcaseB.node4.wlan[0].mac.dcf.channelAccess.pendingQueue outgoingPacketLengths:vector ETV
attr interpolationmode none
attr recordingmode vector
attr source packetLength(packetPulled)
attr title "outgoing packet lengths"
attr unit b
vector 291 ManetprotocolsShowcaseB.node4.wlan[0].mac.dcf.channelAccess.pendingQueue outgoingDataRate:vector ETV
attr interpolationmode linear
attr recordingmode vector
attr source throughput(packetPulled)
attr title "outgoing datarate"
attr unit bps
vector 292 ManetprotocolsShowcaseB.node4.wlan[0].mac.dcf.channelAccess.pendingQueue droppedPacketLengthsQueueOverflow:vector ETV
attr interpolationmode none
attr recordingmode vector
attr source packetLength(packetDropReasonIsQueueOverflow(packetDropped))
attr title "dropped packet lengths: queue overflow"
attr unit b
vector 293 ManetprotocolsShowcaseB.node4.wlan[0].mac.dcf.channelAccess.pendingQueue flowQueueingTime:vector ETV
attr interpolationmode none
attr recordingmode vector
attr source queueingTime(demuxFlow(packetPulled))
attr title "flow queueing times"
attr unit s
vector 294 ManetprotocolsShowcaseB.node4.wlan[0].mac.dcf.channelAccess.pendingQueue flowIncomingDataRate:vector ETV
attr interpolationmode linear
attr recordingmode vector
[...]
912	517564 120 828 828 0.1 0.8 8 0 0 0 0
917	517684 33 894 894 0.852892595743 0.852892595743 1 0.000256 0.000256 0.000256 6.5536e-08
918	517717 74 0 894 0 0.852892595743 4 0 1 1 1
919	517791 27 826 826 0.852636595743 0.852636595743 1 10 10 10 100
920	517818 74 0 827 0 0.852636595743 4 0 1 1 1
921	517892 2572 0 2874 0 1.847109970576 98 0 2 4 8
923	520464 12 0 0 0 0 1 31 31 31 961
924	520476 27 894 894 0.852892595743 0.852892595743 1 88 88 88 7744
926	520503 27 894 894 0.852892595743 0.852892595743 1 88 88 88 7744
927	520530 27 894 894 0.852892595743 0.852892595743 1 88 88 88 7744
929	520557 27 894 894 0.852892595743 0.852892595743 1 88 88 88 7744
930	520584 135 241 1044 0.849370895582 0.853499191873 5 88 88 440 38720
932	520719 135 241 1044 0.849370895582 0.853499191873 5 88 88 440 38720
933	520854 135 241 1044 0.849370895582 0.853499191873 5 88 88 440 38720
935	520989 135 241 1044 0.849370895582 0.853499191873 5 88 88 440 38720
936	521124 424 1216 2875 0.85428348021 1.847109970576 15 14 120 916 95024
937	521548 424 1216 2875 0.85428348021 1.847109970576 15 14 120 916 95024
940	521972 74 0 894 0 0.852892595743 4 0 1 1 1
941	522046 33 828 828 0.852636595743 0.852636595743 1 11000000 11000000 11000000 1.21e+14
942	522079 613 1427 2873 0.857698241784 1.847109952085 21 0 0.000213 0.001491 3.17583e-07
943	522692 135 241 1044 0.849370895582 0.853499191873 5 60 60 300 18000
944	522827 27 828 828 0.852636595743 0.852636595743 1 88 88 88 7744
945	522854 27 826 826 0.852636595743 0.852636595743 1 60 60 60 3600
946	522881 559 241 2875 0.849370895582 1.847109970576 20 14 120 1356 133744
947	523440 424 1216 2875 0.85428348021 1.847109970576 15 14 120 916 95024
949	523864 424 1216 2875 0.85428348021 1.847109970576 15 14 120 916 95024
954	524288 85 0 895 0 0.852892595743 5 0 3 7 17
955	524373 1128 0 2874 0 1.847109970576 43 0 3 82 202
956	525501 104 829 895 0.852636595743 0.852892595743 4 0 2 4 6
957	525605 11 0 0 0 0 1 0 0 0 0
966	525616 27 823 823 0.852636595743 0.852636595743 1 32 32 32 1024
967	525643 135 244 1047 0.849370895582 0.853499191873 5 32 32 160 5120
968	525778 141 0 1047 0 0.853499191873 6 0 5 15 55
969	525919 11 0 0 0 0 1 0 0 0 0
970	525930 11 0 0 0 0 1 0 0 0 0
975	525941 55 0 0 0 0 5 0 0 0 0
976	525996 55 0 0 0 0 5 0 0 0 0
987	526051 22 0 0 0 0 2 0 0 0 0
989	526073 22 0 0 0 0 2 0 0 0 0
990	526095 1304 0 2705 0 1.846465987642 50 0 0 0 0
992	527399 12 0 0 0 0 1 31 31 31 961
1005	527411 203 859 2643 0.852715517137 1.846252987642 7 14 120 520 50360
1006	527614 203 859 2643 0.852715517137 1.846252987642 7 14 120 520 50360
1009	527817 24 0 0 0 0 2 0 0 0 0
1011	527841 450 859 2705 0.852715517137 1.846465987642 15 0 0.000213 0.001065 2.26845e-07
1015	528291 203 859 2643 0.852715517137 1.846252987642 7 14 120 520 50360
1016	528494 203 859 2643 0.852715517137 1.846252987642 7 14 120 520 50360
1018	528697 203 859 2643 0.852715517137 1.846252987642 7 14 120 520 50360
1023	528900 36 0 0 0 0 3 0 2 2 4
1024	528936 400 0 2642 0 1.846252987642 15 1 3 29 71
1026	529336 12 0 0 0 0 1 0 0 0 0
1037	529348 12 0 0 0 0 1 0 0 0 0
1038	529360 12 0 0 0 0 1 0 0 0 0
1039	529372 12 0 0 0 0 1 0 0 0 0
1044	529384 60 0 0 0 0 5 0 0 0 0
1045	529444 60 0 0 0 0 5 0 0 0 0
1056	529504 24 0 0 0 0 2 0 0 0 0
1058	529528 24 0 0 0 0 2 0 0 0 0
1059	529552 2718 0 2869 0 1.847109880279 100 0 0 0 0
1061	532270 13 0 0 0 0 1 31 31 31 961
1068	532283 85 376 1303 0.850272336675 0.854829414506 3 88 88 264 23232
1070	532368 85 376 1303 0.850272336675 0.854829414506 3 88 88 264 23232
1071	532453 85 376 1303 0.850272336675 0.854829414506 3 88 88 264 23232
1073	532538 85 376 1303 0.850272336675 0.854829414506 3 88 88 264 23232
1074	532623 464 865 2817 0.852715669432 1.846896880279 16 14 120 1070 108940
1075	533087 464 865 2817 0.852715669432 1.846896880279 16 14 120 1070 108940
1078	533551 24 0 0 0 0 2 0 0 0 0
1080	533575 801 865 2869 0.852715669432 1.847109880279 27 0 0.000213 0.001917 4.08321e-07
1081	534376 85 376 1303 0.850272336675 0.854829414506 3 60 60 180 10800
1084	534461 578 376 2817 0.850272336675 1.846896880279 20 14 120 1418 139228
1085	535039 493 865 2817 0.852715669432 1.846896880279 17 14 120 1154 115996
1086	535532 29 1005 1005 0.853292669428 0.853292669428 1 84 84 84 7056
1087	535561 464 865 2817 0.852715669432 1.846896880279 16 14 120 1070 108940
1092	536025 36 0 0 0 0 3 0 2 2 4
1093	536061 1115 0 2816 0 1.846896880279 41 1 3 81 201
1095	537176 12 0 0 0 0 1 0 0 0 0
1105	537188 85 379 1306 0.850272336675 0.854829414506 3 32 32 96 3072
1106	537273 94 0 1306 0 0.854829414506 4 0 3 6 14
1107	537367 12 0 0 0 0 1 0 0 0 0
1108	537379 12 0 0 0 0 1 0 0 0 0
1113	537391 60 0 0 0 0 5 0 0 0 0
1114	537451 60 0 0 0 0 5 0 0 0 0
1125	537511 24 0 0 0 0 2 0 0 0 0
1127	537535 24 0 0 0 0 2 0 0 0 0
1128	537559 2798 0 2863 0 1.847109801911 102 0 0 0 0
1130	540357 13 0 0 0 0 1 31 31 31 961
1137	540370 85 400 1297 0.850272409388 0.854829414105 3 88 88 264 23232
1139	540455 85 400 1297 0.850272409388 0.854829414105 3 88 88 264 23232
1140	540540 85 400 1297 0.850272409388 0.854829414105 3 88 88 264 23232
1142	540625 85 400 1297 0.850272409388 0.854829414105 3 88 88 264 23232
1143	540710 495 857 2803 0.852715513303 1.846896801911 17 14 120 1154 115996
1144	541205 495 857 2803 0.852715513303 1.846896801911 17 14 120 1154 115996
1147	541700 24 0 0 0 0 2 0 0 0 0
1149	541724 905 857 2863 0.852715513303 1.847109801911 30 0 0.000213 0.00213 4.5369e-07
1150	542629 85 400 1297 0.850272409388 0.854829414105 3 60 60 180 10800
1153	542714 580 400 2803 0.850272409388 1.846896801911 20 14 120 1418 139228
1154	543294 495 857 2803 0.852715513303 1.846896801911 17 14 120 1154 115996
1156	543789 495 857 2803 0.852715513303 1.846896801911 17 14 120 1154 115996
1161	544284 36 0 0 0 0 3 0 2 2 4
1162	544320 1120 0 2802 0 1.846896801911 41 1 3 81 201
1164	545440 12 0 0 0 0 1 0 0 0 0
1174	545452 85 403 1300 0.850272409388 0.854829414105 3 32 32 96 3072
1175	545537 94 0 1300 0 0.854829414105 4 0 3 6 14
1176	545631 12 0 0 0 0 1 0 0 0 0
1177	545643 12 0 0 0 0 1 0 0 0 0
1182	545655 115 0 1222 0 0.854573085122 7 0 1 1 1
1183	545770 117 0 1222 0 0.854573085122 7 0 704 704 495616
1184	545887 41 1222 1222 0.854573085122 0.854573085122 1 0.001448296558 0.001448296558 0.001448296558 2.0975629199146e-06
1185	545928 29 966 966 0.853124788564 0.853124788564 1 704 704 704 495616
1186	545957 128 966 966 0.1 0.8 8 0 0 0 0
1187	546085 30 1222 1222 0.854573085122 0.854573085122 1 704 704 704 495616
1188	546115 136 1222 1222 0.1 0.8 8 0 0 0 0
1193	546251 35 1246 1246 0.854829085122 0.854829085122 1 0.000256 0.000256 0.000256 6.5536e-08
1194	546286 80 0 1246 0 0.854829085122 4 0 1 1 1
1195	546366 28 966 966 0.853124788564 0.853124788564 1 12 12 12 144
1196	546394 192 0 1221 0 0.854573085122 8 0 1 3 3
1197	546586 3344 0 2887 0 1.847110435179 122 0 2 20 32
1199	549930 13 0 0 0 0 1 31 31 31 961
1200	549943 29 1246 1246 0.854829085122 0.854829085122 1 88 88 88 7744
1202	549972 29 1246 1246 0.854829085122 0.854829085122 1 88 88 88 7744
1203	550001 29 1246 1246 0.854829085122 0.854829085122 1 88 88 88 7744
1205	550030 29 1246 1246 0.854829085122 0.854829085122 1 88 88 88 7744
1206	550059 138 277 684 0.84937135787 0.85191093061 5 88 88 440 38720
1208	550197 138 277 684 0.84937135787 0.85191093061 5 88 88 440 38720
1209	550335 138 277 684 0.84937135787 0.85191093061 5 88 88 440 38720
1211	550473 138 277 684 0.84937135787 0.85191093061 5 88 88 440 38720
1212	550611 587 1123 2888 0.854069842227 1.847110435179 20 14 120 1268 131272
1213	551198 587 1123 2888 0.854069842227 1.847110435179 20 14 120 1268 131272
1216	551785 80 0 1246 0 0.854829085122 4 0 1 1 1
1217	551865 35 1222 1222 0.854573085122 0.854573085122 1 11000000 11000000 11000000 1.21e+14
1218	551900 910 1123 2856 0.854069842227 1.847109578577 30 0 0.000213 0.00213 4.5369e-07
1219	552810 138 277 684 0.84937135787 0.85191093061 5 60 60 300 18000
1220	552948 29 1222 1222 0.854573085122 0.854573085122 1 88 88 88 7744
1221	552977 28 966 966 0.853124788564 0.853124788564 1 60 60 60 3600
1222	553005 782 277 2888 0.84937135787 1.847110435179 27 14 120 1876 184104
1223	553787 644 875 2888 0.852715842222 1.847110435179 22 14 120 1436 145384
1224	554431 57 875 1015 0.852715842222 0.853292842224 2 84 84 168 14112
1225	554488 587 1123 2888 0.854069842227 1.847110435179 20 14 120 1268 131272
1230	555075 92 0 1247 0 0.854829085122 5 0 3 7 17
1231	555167 1589 0 2887 0 1.847110435179 58 0 3 112 276
1232	556756 112 1223 1247 0.854573085122 0.854829085122 4 0 2 4 6
1233	556868 12 0 0 0 0 1 0 0 0 0
1242	556880 28 963 963 0.853124788564 0.853124788564 1 32 32 32 1024
1243	556908 138 280 687 0.84937135787 0.85191093061 5 32 32 160 5120
1244	557046 145 0 687 0 0.85191093061 6 0 5 15 55
1245	557191 12 0 0 0 0 1 0 0 0 0
1246	557203 12 0 0 0 0 1 0 0 0 0
1251	557215 60 0 0 0 0 5 0 0 0 0
1252	557275 60 0 0 0 0 5 0 0 0 0
1263	557335 24 0 0 0 0 2 0 0 0 0
1265	557359 24 0 0 0 0 2 0 0 0 0
1266	557383 2898 0 2859 0 1.847109627037 106 0 0 0 0
1268	560281 13 0 0 0 0 1 31 31 31 961
1275	560294 139 382 1267 0.8502723377 0.854829323056 5 88 88 440 38720
1277	560433 139 382 1267 0.8502723377 0.854829323056 5 88 88 440 38720
1278	560572 139 382 1267 0.8502723377 0.854829323056 5 88 88 440 38720
1280	560711 139 382 1267 0.8502723377 0.854829323056 5 88 88 440 38720
1281	560850 440 1111 2795 0.85406966927 1.846896627037 15 14 120 986 101884
1282	561290 440 1111 2795 0.85406966927 1.846896627037 15 14 120 986 101884
1285	561730 24 0 0 0 0 2 0 0 0 0
1287	561754 725 1111 2859 0.85406966927 1.847109627037 24 0 0.000213 0.001704 3.62952e-07
1288	562479 139 382 1267 0.8502723377 0.854829323056 5 60 60 300 18000
1291	562618 636 382 2795 0.8502723377 1.846896627037 22 14 120 1594 154716
1292	563254 497 863 2795 0.852715669261 1.846896627037 17 14 120 1154 115996
1293	563751 57 863 1003 0.852715669261 0.853292669265 2 84 84 168 14112
1294	563808 440 1111 2795 0.85406966927 1.846896627037 15 14 120 986 101884
1299	564248 36 0 0 0 0 3 0 2 2 4
1300	564284 1255 0 2794 0 1.846896627037 46 1 3 91 225
1302	565539 12 0 0 0 0 1 0 0 0 0
1312	565551 139 385 1270 0.8502723377 0.854829323056 5 32 32 160 5120
1313	565690 146 0 1270 0 0.854829323056 6 0 5 15 55
1314	565836 12 0 0 0 0 1 0 0 0 0
1315	565848 12 0 0 0 0 1 0 0 0 0
1320	565860 392 0 2760 0 1.846616388666 17 0 1 6 6
1321	566252 404 0 2760 0 1.846616388666 17 0 960 5216 4633600
1322	566656 207 651 2760 0.851654751384 1.846616388666 6 0 0.000603 0.002164717408 1.0035664441462e-06
1323	566863 178 566 2671 0.851162033976 1.846253388666 6 672 960 5216 4633600
1324	567041 300 566 2368 0.1 1.8 18 0 32960 32960 1086361600
1325	567341 178 651 2760 0.851654751384 1.846616388666 6 672 960 5216 4633600
1326	567519 300 651 2461 0.1 1.8 18 0 32960 32960 1086361600
1331	567819 237 675 2884 0.851910751384 1.847110346062 6 0.000256 0.00049416586 0.002700212384 1.2609155911985e-06
1332	568056 356 0 2884 0 1.847110346062 14 0 1 6 6
1333	568412 169 566 2671 0.851162033976 1.846253388666 6 0 21 64 980
1334	568581 578 0 2759 0 1.846616388666 22 0 1 10 10
1335	569159 3328 0 2883 0 1.847110346062 122 0 2 50 90
1337	572487 13 0 0 0 0 1 31 31 31 961
1338	572500 319 675 2784 0.851910751384 1.846896388666 11 14 120 722 73380
1339	572819 291 1179 2784 0.85428290587 1.846896388666 10 14 120 634 65636
1340	573110 28 675 675 0.851910751384 0.851910751384 1 88 88 88 7744
1341	573138 28 675 675 0.851910751384 0.851910751384 1 88 88 88 7744
1343	573166 319 675 2784 0.851910751384 1.846896388666 11 14 120 722 73380
1344	573485 432 265 2884 0.849371273125 1.847110346062 15 14 120 1074 104356
1345	573917 291 1129 2884 0.85406990587 1.847110346062 10 14 120 634 65636
1346	574208 141 265 1255 0.849371273125 0.854829264379 5 88 88 440 38720
1347	574349 141 265 1255 0.849371273125 0.854829264379 5 88 88 440 38720
1348	574490 28 1129 1129 0.85406990587 0.85406990587 1 84 84 84 7056
1349	574518 404 265 2884 0.849371273125 1.847110346062 14 14 120 990 97300
1354	574922 356 0 2884 0 1.847110346062 14 0 1 6 6
1355	575278 381 651 2760 0.851654751384 1.846616388666 11 11000000 11000000 121000000 1.331e+15
1356	575659 452 1384 2854 0.857697667481 1.847109388666 15 0 0.000213 0.001065 2.26845e-07
1357	576111 284 265 2667 0.849371273125 1.846253388666 10 56 92 724 54992
1358	576395 319 651 2760 0.851654751384 1.846616388666 11 14 120 722 73380
1359	576714 172 566 2671 0.851162033976 1.846253388666 6 56 92 484 40592
1360	576886 489 265 2884 0.849371273125 1.847110346062 17 14 120 1242 118468
1361	577375 57 881 1021 0.852715905862 0.853292905866 2 84 84 168 14112
1362	577432 57 881 1021 0.852715905862 0.853292905866 2 84 84 168 14112
1368	577489 644 0 2785 0 1.846896388666 25 0 3 57 147
1369	578133 1610 0 2883 0 1.847110346062 59 0 3 84 190
1370	579743 1216 652 2785 0.851654751384 1.846896388666 44 0 2 44 66
1371	580959 12 0 0 0 0 1 0 0 0 0
1380	580971 57 563 1355 0.851162033976 0.857443667481 2 28 32 60 1808
1381	581028 169 268 1258 0.849371273125 0.854829264379 6 28 32 188 5904
1382	581197 175 0 1258 0 0.854829264379 7 0 6 21 91
1383	581372 12 0 0 0 0 1 0 0 0 0
1384	581384 12 0 0 0 0 1 0 0 0 0
1389	581396 60 0 0 0 0 5 0 0 0 0
1390	581456 60 0 0 0 0 5 0 0 0 0
1401	581516 24 0 0 0 0 2 0 0 0 0
1403	581540 24 0 0 0 0 2 0 0 0 0
1404	581564 2696 0 2865 0 1.847109828154 98 0 0 0 0
1406	584260 13 0 0 0 0 1 31 31 31 961
1413	584273 85 346 1279 0.850272139105 0.854829337365 3 88 88 264 23232
1415	584358 85 346 1279 0.850272139105 0.854829337365 3 88 88 264 23232
1416	584443 85 346 1279 0.850272139105 0.854829337365 3 88 88 264 23232
1418	584528 85 346 1279 0.850272139105 0.854829337365 3 88 88 264 23232
1419	584613 441 1127 2807 0.854069893271 1.846896828154 15 14 120 986 101884
1420	585054 441 1127 2807 0.854069893271 1.846896828154 15 14 120 986 101884
1423	585495 24 0 0 0 0 2 0 0 0 0
1425	585519 728 1127 2865 0.854069893271 1.847109828154 24 0 0.000213 0.001704 3.62952e-07
1426	586247 85 346 1279 0.850272139105 0.854829337365 3 60 60 180 10800
1429	586332 583 346 2807 0.850272139105 1.846896828154 20 14 120 1418 139228
1430	586915 498 879 2807 0.852715893276 1.846896828154 17 14 120 1154 115996
1431	587413 57 879 1019 0.852715893276 0.853292893274 2 84 84 168 14112
1432	587470 441 1127 2807 0.854069893271 1.846896828154 15 14 120 986 101884
1437	587911 36 0 0 0 0 3 0 2 2 4
1438	587947 1153 0 2806 0 1.846896828154 42 1 3 83 205
1440	589100 12 0 0 0 0 1 0 0 0 0
1450	589112 85 349 1282 0.850272139105 0.854829337365 3 32 32 96 3072
1451	589197 94 0 1282 0 0.854829337365 4 0 3 6 14
1452	589291 12 0 0 0 0 1 0 0 0 0
1453	589303 12 0 0 0 0 1 0 0 0 0
1458	589315 224 0 2614 0 1.84597280573 11 0 1 3 3
1459	589539 230 0 2614 0 1.84597280573 11 0 960 2592 2294784
1460	589769 102 798 2614 0.852461328621 1.84597280573 3 0.000363 0.000883 0.001796 1.213958e-06
1461	589871 88 794 2530 0.851911328621 1.84508980573 3 672 960 2592 2294784
1462	589959 300 794 2530 0.1 1.8 18 0 16320 16320 266342400
1463	590259 88 798 2614 0.852461328621 1.84597280573 3 672 960 2592 2294784
1464	590347 300 798 2614 0.1 1.8 18 0 16320 16320 266342400
1469	590647 121 1218 2756 0.854283483121 1.846466971604 3 0.000494154568 0.0018221545 0.002810474942 3.8086356699717e-06
1470	590768 190 0 2756 0 1.846466971604 8 0 1 3 3
1471	590958 140 794 2530 0.851911328621 1.84508980573 5 3 31 77 1789
1472	591098 408 0 2613 0 1.84597280573 16 0 1 7 7
1473	591506 2676 0 2876 0 1.847109971606 98 0 2 32 60
1475	594182 100 0 1218 0 0.854283483121 4 31 127 252 22020
1476	594282 201 852 2638 0.852715328621 1.84625280573 7 14 120 520 50360
1477	594483 201 852 2638 0.852715328621 1.84625280573 7 14 120 520 50360
1480	594684 57 992 1100 0.853292328621 0.854069328621 2 84 84 168 14112
1481	594741 144 852 2638 0.852715328621 1.84625280573 5 14 120 352 36248
1482	594885 202 786 2756 0.851911328621 1.846466971604 7 14 120 458 44876
1483	595087 146 1218 2756 0.854283483121 1.846466971604 5 14 120 282 29388
1484	595233 56 786 1333 0.851911328621 0.85482959873 2 88 88 176 15488
1485	595289 56 786 1333 0.851911328621 0.85482959873 2 88 88 176 15488
1487	595345 202 786 2756 0.851911328621 1.846466971604 7 14 120 458 44876
1488	595547 147 1429 2827 0.857698244751 1.846896971606 5 14 120 352 36248
1489	595694 147 1429 2827 0.857698244751 1.846896971606 5 14 120 352 36248
1492	595841 300 0 2756 0 1.846466971604 12 0 1 5 5
1493	596141 241 798 2614 0.852461328621 1.84597280573 7 11000000 11000000 77000000 8.47e+14
1494	596382 720 852 2876 0.852715328621 1.847109971606 24 0 0.000213 0.001704 3.62952e-07
1495	597102 113 786 2524 0.851911328621 1.84508980573 4 60 92 304 24128
1496	597215 201 798 2614 0.852461328621 1.84597280573 7 14 120 520 50360
1497	597416 85 794 2530 0.851911328621 1.84508980573 3 56 92 240 20064
1498	597501 349 786 2827 0.851911328621 1.846896971606 12 14 120 810 81124
1499	597850 147 1429 2827 0.857698244751 1.846896971606 5 14 120 352 36248
1501	597997 147 1429 2827 0.857698244751 1.846896971606 5 14 120 352 36248
1506	598144 420 0 2639 0 1.84625280573 17 0 3 37 95
1507	598564 1062 0 2826 0 1.846896971606 39 0 3 56 128
1508	599626 768 799 2639 0.852461328621 1.84625280573 28 0 2 28 42
1509	600394 12 0 0 0 0 1 0 0 0 0
1518	600406 28 791 791 0.851911328621 0.851911328621 1 28 28 28 784
1519	600434 56 789 1336 0.851911328621 0.85482959873 2 32 32 64 2048
1520	600490 66 0 1336 0 0.85482959873 3 0 2 3 5
1521	600556 12 0 0 0 0 1 0 0 0 0
1522	600568 12 0 0 0 0 1 0 0 0 0
8	600580 96 3162 3162 1.9 2.351911243955 6 0 9600 9600 92160000
10	600676 102 3162 3162 1.9 2.351911243955 6 0 9600 9600 92160000
82	600778 250 3162 3162 0.9 2.351911243955 16 0 7040 7040 49561600
84	601028 250 3162 3162 0.9 2.351911243955 16 0 7040 7040 49561600
151	601278 391 3162 3162 0.1 2.351911243955 24 0 0 0 0
153	601669 391 3162 3162 0.1 2.351911243955 24 0 0 0 0
220	602060 266 3162 3162 0.9 2.351911243955 16 0 7040 7040 49561600
222	602326 266 3162 3162 0.9 2.351911243955 16 0 7040 7040 49561600
289	602592 391 3162 3162 0.1 2.351911243955 24 0 0 0 0
291	602983 391 3162 3162 0.1 2.351911243955 24 0 0 0 0
358	603374 391 3162 3162 0.1 2.351911243955 24 0 0 0 0
360	603765 391 3162 3162 0.1 2.351911243955 24 0 0 0 0
427	604156 391 3162 3162 0.1 2.351911243955 24 0 0 0 0
429	604547 391 3162 3162 0.1 2.351911243955 24 0 0 0 0
496	604938 391 3162 3162 0.1 2.351911243955 24 0 0 0 0
498	605329 391 3162 3162 0.1 2.351911243955 24 0 0 0 0
565	605720 391 3162 3162 0.1 2.351911243955 24 0 0 0 0
567	606111 391 3162 3162 0.1 2.351911243955 24 0 0 0 0
634	606502 391 3162 3162 0.1 2.351911243955 24 0 0 0 0
636	606893 391 3162 3162 0.1 2.351911243955 24 0 0 0 0
703	607284 391 3162 3162 0.1 2.351911243955 24 0 0 0 0
705	607675 391 3162 3162 0.1 2.351911243955 24 0 0 0 0
772	608066 266 3162 3162 0.9 2.351911243955 16 0 7040 7040 49561600
774	608332 266 3162 3162 0.9 2.351911243955 16 0 7040 7040 49561600
841	608598 266 3162 3162 0.9 2.351911243955 16 0 7040 7040 49561600
843	608864 266 3162 3162 0.9 2.351911243955 16 0 7040 7040 49561600
910	609130 266 3162 3162 0.9 2.351911243955 16 0 7040 7040 49561600
912	609396 266 3162 3162 0.9 2.351911243955 16 0 7040 7040 49561600
979	609662 391 3162 3162 0.1 2.351911243955 24 0 0 0 0
981	610053 391 3162 3162 0.1 2.351911243955 24 0 0 0 0
1048	610444 415 3162 3162 0.1 2.351911243955 24 0 0 0 0
1050	610859 415 3162 3162 0.1 2.351911243955 24 0 0 0 0
1117	611274 415 3162 3162 0.1 2.351911243955 24 0 0 0 0
1119	611689 415 3162 3162 0.1 2.351911243955 24 0 0 0 0
1186	612104 282 3162 3162 0.9 2.351911243955 16 0 7040 7040 49561600
1188	612386 282 3162 3162 0.9 2.351911243955 16 0 7040 7040 49561600
1255	612668 415 3162 3162 0.1 2.351911243955 24 0 0 0 0
1257	613083 415 3162 3162 0.1 2.351911243955 24 0 0 0 0
1324	613498 115 3162 3162 1.9 2.351911243955 6 0 19200 19200 368640000
1326	613613 115 3162 3162 1.9 2.351911243955 6 0 19200 19200 368640000
1393	613728 415 3162 3162 0.1 2.351911243955 24 0 0 0 0
1395	614143 415 3162 3162 0.1 2.351911243955 24 0 0 0 0
1462	614558 114 3162 3162 1.9 2.351911243955 6 0 9600 9600 92160000
1464	614672 114 3162 3162 1.9 2.351911243955 6 0 9600 9600 92160000

