version 3
run General-0-20241111-21:03:47-24772
attr configname General
attr datetime 20241111-21:03:47
attr datetimef 20241111-210347
attr experiment General
attr inifile omnetpp.ini
attr iterationvars ""
attr iterationvarsd ""
attr iterationvarsf ""
attr measurement ""
attr network manet2.ManetNetwork
attr processid 24772
attr repetition 0
attr replication #0
attr resultdir results
attr runnumber 0
attr seedset 0
config image-path ../../inet4.5/images
config network manet2.ManetNetwork
config *.numHosts 4
config num-rngs 3
config **.mobility.rng-0 1
config **.wlan[*].mac.rng-0 2
config **.constraintAreaMinX 0m
config **.constraintAreaMinY 0m
config **.constraintAreaMaxX 250m
config **.constraintAreaMaxY 250m
config **.dsdvRouter[*].mobility.typename MassMobility
config **.dsdvRouter[*].mobility.initFromDisplayString false
config **.dsdvRouter[*].mobility.changeInterval "truncnormal(2s, 0.5s)"
config **.dsdvRouter[*].mobility.angleDelta "normal(0deg, 30deg)"
config **.dsdvRouter[*].mobility.speed "truncnormal(15mps, 5mps)"
config **.dsdvRouter[*].mobility.updateInterval 100ms
config *.dsdvRouter[0].numApps 1
config *.dsdvRouter[0].app[*].typename PingApp
config *.dsdvRouter[0].app[0].startTime uniform(1s,5s)
config *.dsdvRouter[0].app[0].printPing true
config **.wlan[*].bitrate 2Mbps
config **.wlan[*].mac.dcf.channelAccess.cwMin 7
config **.wlan[*].radio.transmitter.power 5mW
config **.wlan[*].radio.receiver.sensitivity -85dBm
config **.wlan[*].radio.receiver.snirThreshold 4dB

par ManetNetwork.radioMedium.propagation typename "\"inet.physicallayer.wireless.common.propagation.ConstantSpeedPropagation\""
par ManetNetwork.radioMedium.propagation propagationSpeed 2.99792e+08mps
attr unit mps
par ManetNetwork.radioMedium.propagation ignoreMovementDuringTransmission true
par ManetNetwork.radioMedium.propagation ignoreMovementDuringPropagation true
par ManetNetwork.radioMedium.propagation ignoreMovementDuringReception true
scalar ManetNetwork.radioMedium.propagation "Arrival computation count" 414
par ManetNetwork.radioMedium.analogModel typename "\"inet.physicallayer.wireless.common.analogmodel.packetlevel.ScalarAnalogModel\""
par ManetNetwork.radioMedium.analogModel ignorePartialInterference false
par ManetNetwork.radioMedium.backgroundNoise typename "\"inet.physicallayer.wireless.common.backgroundnoise.IsotropicScalarBackgroundNoise\""
par ManetNetwork.radioMedium.backgroundNoise power -110dBm
attr unit dBm
par ManetNetwork.radioMedium.backgroundNoise bandwidth "nan Hz"
attr unit Hz
par ManetNetwork.radioMedium.pathLoss typename "\"inet.physicallayer.wireless.common.pathloss.FreeSpacePathLoss\""
par ManetNetwork.radioMedium.pathLoss alpha 2
par ManetNetwork.radioMedium.pathLoss systemLoss 0dB
attr unit dB
par ManetNetwork.radioMedium.mediumLimitCache typename "\"inet.physicallayer.wireless.common.medium.MediumLimitCache\""
par ManetNetwork.radioMedium.mediumLimitCache centerFrequency 2.4e+09Hz
attr unit Hz
par ManetNetwork.radioMedium.mediumLimitCache maxSpeed "nan mps"
attr unit mps
par ManetNetwork.radioMedium.mediumLimitCache maxTransmissionPower "nan W"
attr unit W
par ManetNetwork.radioMedium.mediumLimitCache minInterferencePower -110dBm
attr unit dBm
par ManetNetwork.radioMedium.mediumLimitCache minReceptionPower -85dBm
attr unit dBm
par ManetNetwork.radioMedium.mediumLimitCache maxAntennaGain 0dB
attr unit dB
par ManetNetwork.radioMedium.mediumLimitCache minInterferenceTime 1e-12s
attr unit s
par ManetNetwork.radioMedium.mediumLimitCache maxTransmissionDuration 0.01s
attr unit s
par ManetNetwork.radioMedium.mediumLimitCache maxCommunicationRange "nan m"
attr unit m
par ManetNetwork.radioMedium.mediumLimitCache maxInterferenceRange "nan m"
attr unit m
par ManetNetwork.radioMedium.communicationCache typename "\"inet.physicallayer.wireless.common.communicationcache.VectorCommunicationCache\""
par ManetNetwork.radioMedium typename "\"inet.physicallayer.wireless.ieee80211.packetlevel.Ieee80211ScalarRadioMedium\""
par ManetNetwork.radioMedium physicalEnvironmentModule "\"physicalEnvironment\""
par ManetNetwork.radioMedium signalAnalogRepresentation "\"scalar\""
attr enum unitDisk,scalar,dimensional
par ManetNetwork.radioMedium rangeFilter "\"\""
par ManetNetwork.radioMedium radioModeFilter false
par ManetNetwork.radioMedium listeningFilter false
par ManetNetwork.radioMedium macAddressFilter false
par ManetNetwork.radioMedium recordTransmissionLog false
par ManetNetwork.radioMedium recordReceptionLog false
scalar ManetNetwork.radioMedium "transmission count" 138
scalar ManetNetwork.radioMedium "signal send count" 414
scalar ManetNetwork.radioMedium "reception computation count" 414
scalar ManetNetwork.radioMedium "interference computation count" 1372
scalar ManetNetwork.radioMedium "reception decision computation count" 404
scalar ManetNetwork.radioMedium "listening decision computation count" 558
scalar ManetNetwork.radioMedium "reception cache hit" 85.564853556485
attr unit %
scalar ManetNetwork.radioMedium "interference cache hit" 66.666666666667
attr unit %
scalar ManetNetwork.radioMedium "noise cache hit" 0
attr unit %
scalar ManetNetwork.radioMedium "snir cache hit" 50
attr unit %
scalar ManetNetwork.radioMedium "reception decision cache hit" 50
attr unit %
scalar ManetNetwork.radioMedium "reception result cache hit" 0
attr unit %
par ManetNetwork.configurator typename "\"inet.networklayer.configurator.ipv4.Ipv4NetworkConfigurator\""
par ManetNetwork.configurator minLinkWeight 0.001
par ManetNetwork.configurator configureIsolatedNetworksSeparatly false
par ManetNetwork.configurator config "<config>...</config> at content:1"
par ManetNetwork.configurator assignAddresses true
par ManetNetwork.configurator assignUniqueAddresses true
par ManetNetwork.configurator assignDisjunctSubnetAddresses true
par ManetNetwork.configurator addStaticRoutes true
par ManetNetwork.configurator addDefaultRoutes true
par ManetNetwork.configurator addSubnetRoutes true
par ManetNetwork.configurator addDirectRoutes true
par ManetNetwork.configurator optimizeRoutes true
par ManetNetwork.configurator dumpTopology false
par ManetNetwork.configurator dumpLinks false
par ManetNetwork.configurator dumpAddresses false
par ManetNetwork.configurator dumpRoutes false
par ManetNetwork.configurator dumpConfig "\"\""
par ManetNetwork.routingTableRecorder typename "\"inet.networklayer.ipv4.RoutingTableRecorder\""
par ManetNetwork.routingTableRecorder enabled true
par ManetNetwork.scenarioManager typename "\"inet.common.scenario.ScenarioManager\""
par ManetNetwork.scenarioManager script "<scenario/> at content:1"
par ManetNetwork.dsdvRouter[0].radioIn[0].channel typename "\"ned.IdealChannel\""
par ManetNetwork.dsdvRouter[0].mobility typename "\"inet.mobility.single.MassMobility\""
par ManetNetwork.dsdvRouter[0].mobility subjectModule "\"^\""
par ManetNetwork.dsdvRouter[0].mobility coordinateSystemModule "\"\""
par ManetNetwork.dsdvRouter[0].mobility displayStringTextFormat "\"p: %p\\nv: %v\""
attr mutable ""
par ManetNetwork.dsdvRouter[0].mobility updateDisplayString true
par ManetNetwork.dsdvRouter[0].mobility constraintAreaMinX 0m
attr unit m
par ManetNetwork.dsdvRouter[0].mobility constraintAreaMinY 0m
attr unit m
par ManetNetwork.dsdvRouter[0].mobility constraintAreaMinZ "-inf m"
attr unit m
par ManetNetwork.dsdvRouter[0].mobility constraintAreaMaxX 250m
attr unit m
par ManetNetwork.dsdvRouter[0].mobility constraintAreaMaxY 250m
attr unit m
par ManetNetwork.dsdvRouter[0].mobility constraintAreaMaxZ "inf m"
attr unit m
par ManetNetwork.dsdvRouter[0].mobility updateInterval 0.1s
attr unit s
par ManetNetwork.dsdvRouter[0].mobility faceForward true
par ManetNetwork.dsdvRouter[0].mobility initialX 104.255m
attr unit m
par ManetNetwork.dsdvRouter[0].mobility initialY 249.296m
attr unit m
par ManetNetwork.dsdvRouter[0].mobility initialZ 0m
attr unit m
par ManetNetwork.dsdvRouter[0].mobility initialMovementHeading 335.721deg
attr unit deg
par ManetNetwork.dsdvRouter[0].mobility initialMovementElevation 0deg
attr unit deg
par ManetNetwork.dsdvRouter[0].mobility initFromDisplayString false
par ManetNetwork.dsdvRouter[0].mobility changeInterval "truncnormal(2s, 0.5s)"
attr unit s
par ManetNetwork.dsdvRouter[0].mobility angleDelta "normal(0deg, 30deg)"
attr unit deg
par ManetNetwork.dsdvRouter[0].mobility rotationAxisAngle 0deg
attr unit deg
par ManetNetwork.dsdvRouter[0].mobility speed "truncnormal(15mps, 5mps)"
attr mutable ""
attr unit mps
par ManetNetwork.dsdvRouter[0].interfaceTable typename "\"inet.networklayer.common.InterfaceTable\""
par ManetNetwork.dsdvRouter[0].interfaceTable displayAddresses false
par ManetNetwork.dsdvRouter[0].cb typename "\"inet.common.MessageDispatcher\""
par ManetNetwork.dsdvRouter[0].cb displayStringTextFormat "\"processed %p pk (%l)\""
par ManetNetwork.dsdvRouter[0].cb forwardServiceRegistration true
par ManetNetwork.dsdvRouter[0].cb forwardProtocolRegistration true
par ManetNetwork.dsdvRouter[0].bl typename "\"inet.common.MessageDispatcher\""
par ManetNetwork.dsdvRouter[0].bl displayStringTextFormat "\"processed %p pk (%l)\""
par ManetNetwork.dsdvRouter[0].bl forwardServiceRegistration true
par ManetNetwork.dsdvRouter[0].bl forwardProtocolRegistration true
par ManetNetwork.dsdvRouter[0].li typename "\"inet.common.MessageDispatcher\""
par ManetNetwork.dsdvRouter[0].li displayStringTextFormat "\"processed %p pk (%l)\""
par ManetNetwork.dsdvRouter[0].li forwardServiceRegistration true
par ManetNetwork.dsdvRouter[0].li forwardProtocolRegistration true
par ManetNetwork.dsdvRouter[0].lo[0].upperLayerIn.channel typename "\"ned.IdealChannel\""
par ManetNetwork.dsdvRouter[0].lo[0].lo.upperLayerOut.channel typename "\"ned.IdealChannel\""
par ManetNetwork.dsdvRouter[0].lo[0].lo typename "\"inet.linklayer.loopback.Loopback\""
par ManetNetwork.dsdvRouter[0].lo[0].lo interfaceTableModule "\"ManetNetwork.dsdvRouter[0].interfaceTable\""
par ManetNetwork.dsdvRouter[0].lo[0].lo mtu 4470B
attr unit B
scalar ManetNetwork.dsdvRouter[0].lo[0].lo rcvdPkFromHl:count 0
attr interpolationmode none
attr recordingmode count
attr source packetReceivedFromUpper
attr title "packets received from higher layer, count"
scalar ManetNetwork.dsdvRouter[0].lo[0].lo rcvdPkFromHl:sum(packetBytes) 0
attr interpolationmode none
attr recordingmode sum(packetBytes)
attr source packetReceivedFromUpper
attr title "packets received from higher layer, sum(packetBytes)"
scalar ManetNetwork.dsdvRouter[0].lo[0].lo passedUpPk:count 0
attr interpolationmode none
attr recordingmode count
attr source packetSentToUpper
attr title "packets passed to higher layer, count"
scalar ManetNetwork.dsdvRouter[0].lo[0].lo passedUpPk:sum(packetBytes) 0
attr interpolationmode none
attr recordingmode sum(packetBytes)
attr source packetSentToUpper
attr title "packets passed to higher layer, sum(packetBytes)"
par ManetNetwork.dsdvRouter[0].lo[0] typename "\"inet.linklayer.loopback.LoopbackInterface\""
par ManetNetwork.dsdvRouter[0].lo[0] displayStringTextFormat "\"%a (%i)\\n%m\""
par ManetNetwork.dsdvRouter[0].lo[0] recordPcap false
par ManetNetwork.dsdvRouter[0].lo[0] numPcapRecorders 0
par ManetNetwork.dsdvRouter[0].lo[0] interfaceTableModule "\"ManetNetwork.dsdvRouter[0].interfaceTable\""
scalar ManetNetwork.dsdvRouter[0].lo[0] packetDropInterfaceDown:count 0
attr interpolationmode none
attr recordingmode count
attr source packetDropReasonIsInterfaceDown(packetDropped)
attr title "packet drops: interface down, count"
scalar ManetNetwork.dsdvRouter[0].lo[0] packetDropInterfaceDown:sum(packetBytes) 0
attr interpolationmode none
attr recordingmode sum(packetBytes)
attr source packetDropReasonIsInterfaceDown(packetDropped)
attr title "packet drops: interface down, sum(packetBytes)"
scalar ManetNetwork.dsdvRouter[0].lo[0] packetDropNoCarrier:count 0
attr interpolationmode none
attr recordingmode count
attr source packetDropReasonIsNoCarrier(packetDropped)
attr title "packet drops: no carrier, count"
scalar ManetNetwork.dsdvRouter[0].lo[0] packetDropNoCarrier:sum(packetBytes) 0
attr interpolationmode none
attr recordingmode sum(packetBytes)
attr source packetDropReasonIsNoCarrier(packetDropped)
attr title "packet drops: no carrier, sum(packetBytes)"
par ManetNetwork.dsdvRouter[0].wlan[0].radioIn.channel typename "\"ned.IdealChannel\""
par ManetNetwork.dsdvRouter[0].wlan[0].llc.upperLayerOut.channel typename "\"ned.IdealChannel\""
par ManetNetwork.dsdvRouter[0].wlan[0].upperLayerIn.channel typename "\"ned.IdealChannel\""
par ManetNetwork.dsdvRouter[0].wlan[0].mib typename "\"inet.linklayer.ieee80211.mib.Ieee80211Mib\""
par ManetNetwork.dsdvRouter[0].wlan[0].llc typename "\"inet.linklayer.ieee80211.llc.Ieee80211LlcLpd\""
par ManetNetwork.dsdvRouter[0].wlan[0].llc registerProtocol false
par ManetNetwork.dsdvRouter[0].wlan[0].mgmt typename "\"inet.linklayer.ieee80211.mgmt.Ieee80211MgmtAdhoc\""
par ManetNetwork.dsdvRouter[0].wlan[0].mgmt mibModule "\"ManetNetwork.dsdvRouter[0].wlan[0].mib\""
par ManetNetwork.dsdvRouter[0].wlan[0].mgmt macModule "\"ManetNetwork.dsdvRouter[0].wlan[0].mac\""
par ManetNetwork.dsdvRouter[0].wlan[0].mgmt interfaceTableModule "\"ManetNetwork.dsdvRouter[0].interfaceTable\""
par ManetNetwork.dsdvRouter[0].wlan[0].mac.dcf.channelAccess.pendingQueue typename "\"inet.linklayer.ieee80211.mac.queue.PendingQueue\""
par ManetNetwork.dsdvRouter[0].wlan[0].mac.dcf.channelAccess.pendingQueue displayStringTextFormat "\"contains %p pk (%l) pushed %u\\npulled %o removed %r dropped %d\""
par ManetNetwork.dsdvRouter[0].wlan[0].mac.dcf.channelAccess.pendingQueue packetCapacity 100
par ManetNetwork.dsdvRouter[0].wlan[0].mac.dcf.channelAccess.pendingQueue dataCapacity -1b
attr unit b
par ManetNetwork.dsdvRouter[0].wlan[0].mac.dcf.channelAccess.pendingQueue dropperClass "\"inet::queueing::PacketAtCollectionEndDropper\""
par ManetNetwork.dsdvRouter[0].wlan[0].mac.dcf.channelAccess.pendingQueue comparatorClass "\"inet::ieee80211::MgmtOverDataComparator\""
par ManetNetwork.dsdvRouter[0].wlan[0].mac.dcf.channelAccess.pendingQueue bufferModule "\"\""
scalar ManetNetwork.dsdvRouter[0].wlan[0].mac.dcf.channelAccess.pendingQueue queueLength:last 0
attr autoWarmupFilter false
attr interpolationmode sample-hold
attr recordingmode last
attr source "warmup(atomic(constant0(packetPushEnded) + count(packetPushStarted) - count(packetPulled) - count(packetRemoved) - count(packetDropped)))"
attr title "queue length, last"
attr unit pk
scalar ManetNetwork.dsdvRouter[0].wlan[0].mac.dcf.channelAccess.pendingQueue queueLength:max 1
attr autoWarmupFilter false
attr interpolationmode sample-hold
attr recordingmode max
attr source "warmup(atomic(constant0(packetPushEnded) + count(packetPushStarted) - count(packetPulled) - count(packetRemoved) - count(packetDropped)))"
attr title "queue length, max"
attr unit pk
scalar ManetNetwork.dsdvRouter[0].wlan[0].mac.dcf.channelAccess.pendingQueue queueLength:timeavg 0
attr autoWarmupFilter false
attr interpolationmode sample-hold
attr recordingmode timeavg
attr source "warmup(atomic(constant0(packetPushEnded) + count(packetPushStarted) - count(packetPulled) - count(packetRemoved) - count(packetDropped)))"
attr title "queue length, timeavg"
attr unit pk
scalar ManetNetwork.dsdvRouter[0].wlan[0].mac.dcf.channelAccess.pendingQueue queueBitLength:last 0
attr autoWarmupFilter false
attr interpolationmode sample-hold
attr recordingmode last
attr source "warmup(atomic(constant0(packetPushEnded) + sum(packetLength(packetPushStarted)) - sum(packetLength(packetPulled)) - sum(packetLength(packetRemoved)) - sum(packetLength(packetDropped))))"
attr title "queue bit length, last"
attr unit b
scalar ManetNetwork.dsdvRouter[0].wlan[0].mac.dcf.channelAccess.pendingQueue queueBitLength:max 576
attr autoWarmupFilter false
attr interpolationmode sample-hold
attr recordingmode max
attr source "warmup(atomic(constant0(packetPushEnded) + sum(packetLength(packetPushStarted)) - sum(packetLength(packetPulled)) - sum(packetLength(packetRemoved)) - sum(packetLength(packetDropped))))"
attr title "queue bit length, max"
attr unit b
scalar ManetNetwork.dsdvRouter[0].wlan[0].mac.dcf.channelAccess.pendingQueue queueBitLength:timeavg 0
attr autoWarmupFilter false
attr interpolationmode sample-hold
attr recordingmode timeavg
attr source "warmup(atomic(constant0(packetPushEnded) + sum(packetLength(packetPushStarted)) - sum(packetLength(packetPulled)) - sum(packetLength(packetRemoved)) - sum(packetLength(packetDropped))))"
attr title "queue bit length, timeavg"
attr unit b
statistic ManetNetwork.dsdvRouter[0].wlan[0].mac.dcf.channelAccess.pendingQueue queueingTime:histogram
field count 34
field mean 0
field stddev 0
field min 0
field max 0
field sum 0
field sqrsum 0
attr interpolationmode none
attr recordingmode histogram
attr source queueingTime(packetPulled)
attr title "queueing times"
attr unit s
bin	-inf	0
bin	-0.5	0
bin	-0.48	0
bin	-0.46	0
bin	-0.44	0
bin	-0.42	0
bin	-0.4	0
bin	-0.38	0
bin	-0.36	0
bin	-0.34	0
bin	-0.32	0
bin	-0.3	0
bin	-0.28	0
bin	-0.26	0
bin	-0.24	0
bin	-0.22	0
bin	-0.2	0
bin	-0.18	0
bin	-0.16	0
bin	-0.14	0
bin	-0.12	0
bin	-0.1	0
bin	-0.08	0
bin	-0.06	0
bin	-0.04	0
bin	-0.02	0
bin	0	34
bin	0.02	0
bin	0.04	0
bin	0.06	0
bin	0.08	0
bin	0.1	0
bin	0.12	0
bin	0.14	0
bin	0.16	0
bin	0.18	0
bin	0.2	0
bin	0.22	0
bin	0.24	0
bin	0.26	0
bin	0.28	0
bin	0.3	0
bin	0.32	0
bin	0.34	0
bin	0.36	0
bin	0.38	0
bin	0.4	0
bin	0.42	0
bin	0.44	0
bin	0.46	0
bin	0.48	0
bin	0.5	0
scalar ManetNetwork.dsdvRouter[0].wlan[0].mac.dcf.channelAccess.pendingQueue outgoingPackets:count 34
attr recordingmode count
attr source packetPulled
attr title "outgoing packets, count"
attr unit pk
scalar ManetNetwork.dsdvRouter[0].wlan[0].mac.dcf.channelAccess.pendingQueue outgoingPacketLengths:sum 19584
attr interpolationmode none
attr recordingmode sum
attr source packetLength(packetPulled)
attr title "outgoing packet lengths, sum"
attr unit b
statistic ManetNetwork.dsdvRouter[0].wlan[0].mac.dcf.channelAccess.pendingQueue outgoingPacketLengths:histogram
field count 34
field mean 576
field stddev 0
field min 576
field max 576
field sum 19584
field sqrsum 11280384
attr interpolationmode none
attr recordingmode histogram
attr source packetLength(packetPulled)
attr title "outgoing packet lengths"
attr unit b
bin	-inf	0
bin	575	0
bin	576	34
bin	577	0
statistic ManetNetwork.dsdvRouter[0].wlan[0].mac.dcf.channelAccess.pendingQueue flowQueueingTime:histogram
field count 0
field mean nan
field stddev nan
field min nan
field max nan
field sum 0
field sqrsum 0
attr interpolationmode none
attr recordingmode histogram
attr source queueingTime(demuxFlow(packetPulled))
attr title "flow queueing times"
attr unit s
bin	-inf	0
bin	0	0
bin	1	0
scalar ManetNetwork.dsdvRouter[0].wlan[0].mac.dcf.channelAccess.pendingQueue incomingPackets:count 34
attr recordingmode count
attr source packetPushStarted
attr title "incoming packets, count"
attr unit pk
scalar ManetNetwork.dsdvRouter[0].wlan[0].mac.dcf.channelAccess.pendingQueue incomingPacketLengths:sum 19584
attr interpolationmode none
attr recordingmode sum
attr source packetLength(packetPushStarted)
attr title "incoming packet lengths, sum"
attr unit b
statistic ManetNetwork.dsdvRouter[0].wlan[0].mac.dcf.channelAccess.pendingQueue incomingPacketLengths:histogram
field count 34
field mean 576
field stddev 0
field min 576
field max 576
field sum 19584
field sqrsum 11280384
attr interpolationmode none
attr recordingmode histogram
attr source packetLength(packetPushStarted)
attr title "incoming packet lengths"
attr unit b
bin	-inf	0
bin	575	0
bin	576	34
bin	577	0
scalar ManetNetwork.dsdvRouter[0].wlan[0].mac.dcf.channelAccess.pendingQueue droppedPacketsQueueOverflow:count 0
attr interpolationmode none
attr recordingmode count
attr source packetDropReasonIsQueueOverflow(packetDropped)
attr title "dropped packets: queue overflow, count"
attr unit pk
scalar ManetNetwork.dsdvRouter[0].wlan[0].mac.dcf.channelAccess.pendingQueue droppedPacketLengthsQueueOverflow:sum 0
attr interpolationmode none
attr recordingmode sum
attr source packetLength(packetDropReasonIsQueueOverflow(packetDropped))
attr title "dropped packet lengths: queue overflow, sum"
attr unit b
par ManetNetwork.dsdvRouter[0].wlan[0].mac.dcf.channelAccess.inProgressFrames typename "\"inet.linklayer.ieee80211.mac.queue.InProgressFrames\""
par ManetNetwork.dsdvRouter[0].wlan[0].mac.dcf.channelAccess.inProgressFrames pendingQueueModule "\"^.pendingQueue\""
par ManetNetwork.dsdvRouter[0].wlan[0].mac.dcf.channelAccess.inProgressFrames originatorMacDataServiceModule "\"^.^.originatorMacDataService\""
par ManetNetwork.dsdvRouter[0].wlan[0].mac.dcf.channelAccess.inProgressFrames ackHandlerModule "\"^.^.ackHandler\""
statistic ManetNetwork.dsdvRouter[0].wlan[0].mac.dcf.channelAccess.inProgressFrames queueingTime:histogram
field count 34
field mean 0.00048
field stddev 0
field min 0.00048
field max 0.00048
field sum 0.01632
field sqrsum 7.8336e-06
attr interpolationmode none
attr recordingmode histogram
attr source queueingTime(packetDequeued)
attr title "queueing times"
bin	-inf	0
bin	0	34
bin	0.01	0
bin	0.02	0
bin	0.03	0
bin	0.04	0
bin	0.05	0
bin	0.06	0
bin	0.07	0
bin	0.08	0
bin	0.09	0
bin	0.1	0
bin	0.11	0
bin	0.12	0
bin	0.13	0
bin	0.14	0
bin	0.15	0
bin	0.16	0
bin	0.17	0
bin	0.18	0
bin	0.19	0
bin	0.2	0
bin	0.21	0
bin	0.22	0
bin	0.23	0
bin	0.24	0
bin	0.25	0
bin	0.26	0
bin	0.27	0
bin	0.28	0
bin	0.29	0
bin	0.3	0
bin	0.31	0
bin	0.32	0
bin	0.33	0
bin	0.34	0
bin	0.35	0
bin	0.36	0
bin	0.37	0
bin	0.38	0
bin	0.39	0
bin	0.4	0
bin	0.41	0
bin	0.42	0
bin	0.43	0
bin	0.44	0
bin	0.45	0
bin	0.46	0
bin	0.47	0
bin	0.48	0
bin	0.49	0
bin	0.5	0
bin	0.51	0
scalar ManetNetwork.dsdvRouter[0].wlan[0].mac.dcf.channelAccess.inProgressFrames queueLength:max 1
attr autoWarmupFilter false
attr interpolationmode sample-hold
attr recordingmode max
attr source "warmup(count(packetEnqueued) - count(packetDequeued))"
attr title "queue length, max"
scalar ManetNetwork.dsdvRouter[0].wlan[0].mac.dcf.channelAccess.inProgressFrames queueLength:timeavg 0.00039736224784454
attr autoWarmupFilter false
attr interpolationmode sample-hold
attr recordingmode timeavg
attr source "warmup(count(packetEnqueued) - count(packetDequeued))"
attr title "queue length, timeavg"
par ManetNetwork.dsdvRouter[0].wlan[0].mac.dcf.channelAccess.contention typename "\"inet.linklayer.ieee80211.mac.contention.Contention\""
par ManetNetwork.dsdvRouter[0].wlan[0].mac.dcf.channelAccess.contention initialChannelBusy true
par ManetNetwork.dsdvRouter[0].wlan[0].mac.dcf.channelAccess.contention backoffOptimization true
scalar ManetNetwork.dsdvRouter[0].wlan[0].mac.dcf.channelAccess.contention stateChanged:count 682
attr enum IDLE,DEFER,IFS_AND_BACKOFF
attr interpolationmode none
attr recordingmode count
attr title "contention state changed, count"
attr type enum
scalar ManetNetwork.dsdvRouter[0].wlan[0].mac.dcf.channelAccess.contention channelAccessGranted:count 34
attr recordingmode count
attr title "channel access granted, count"
par ManetNetwork.dsdvRouter[0].wlan[0].mac.dcf.channelAccess typename "\"inet.linklayer.ieee80211.mac.channelaccess.Dcaf\""
par ManetNetwork.dsdvRouter[0].wlan[0].mac.dcf.channelAccess difsn -1
par ManetNetwork.dsdvRouter[0].wlan[0].mac.dcf.channelAccess cwMin 7
par ManetNetwork.dsdvRouter[0].wlan[0].mac.dcf.channelAccess cwMax -1
par ManetNetwork.dsdvRouter[0].wlan[0].mac.dcf.channelAccess rxModule "\"^.^.rx\""
scalar ManetNetwork.dsdvRouter[0].wlan[0].mac.dcf.channelAccess channelOwnershipChanged:count 68
attr interpolationmode sample-hold
attr recordingmode count
attr title "channel ownership, count"
par ManetNetwork.dsdvRouter[0].wlan[0].mac.dcf.originatorMacDataService.fragmentationPolicy typename "\"inet.linklayer.ieee80211.mac.fragmentation.BasicFragmentationPolicy\""
par ManetNetwork.dsdvRouter[0].wlan[0].mac.dcf.originatorMacDataService.fragmentationPolicy fragmentationThreshold 1500B
attr unit B
par ManetNetwork.dsdvRouter[0].wlan[0].mac.dcf.originatorMacDataService typename "\"inet.linklayer.ieee80211.mac.originator.OriginatorMacDataService\""
scalar ManetNetwork.dsdvRouter[0].wlan[0].mac.dcf.originatorMacDataService packetAggregated:count 0
attr recordingmode count
attr title "packets aggregated, count"
scalar ManetNetwork.dsdvRouter[0].wlan[0].mac.dcf.originatorMacDataService packetFragmented:count 0
attr recordingmode count
attr title "packets fragmented, count"
par ManetNetwork.dsdvRouter[0].wlan[0].mac.dcf.recipientMacDataService typename "\"inet.linklayer.ieee80211.mac.recipient.RecipientMacDataService\""
scalar ManetNetwork.dsdvRouter[0].wlan[0].mac.dcf.recipientMacDataService packetDropDuplicateDetected:count 0
attr interpolationmode none
attr recordingmode count
attr source packetDropReasonIsDuplicateDetected(packetDropped)
attr title "packet drops: duplicate detected, count"
scalar ManetNetwork.dsdvRouter[0].wlan[0].mac.dcf.recipientMacDataService packetDropDuplicateDetected:sum(packetBytes) 0
attr interpolationmode none
attr recordingmode sum(packetBytes)
attr source packetDropReasonIsDuplicateDetected(packetDropped)
attr title "packet drops: duplicate detected, sum(packetBytes)"
scalar ManetNetwork.dsdvRouter[0].wlan[0].mac.dcf.recipientMacDataService packetDeaggregated:count 0
attr recordingmode count
attr title "packets deaggregated, count"
scalar ManetNetwork.dsdvRouter[0].wlan[0].mac.dcf.recipientMacDataService packetDefragmented:count 102
attr recordingmode count
attr title "packets defragmented, count"
par ManetNetwork.dsdvRouter[0].wlan[0].mac.dcf.rateSelection typename "\"inet.linklayer.ieee80211.mac.rateselection.RateSelection\""
par ManetNetwork.dsdvRouter[0].wlan[0].mac.dcf.rateSelection rateControlModule "\"^.rateControl\""
par ManetNetwork.dsdvRouter[0].wlan[0].mac.dcf.rateSelection multicastFrameBitrate -1bps
attr unit bps
par ManetNetwork.dsdvRouter[0].wlan[0].mac.dcf.rateSelection responseAckFrameBitrate -1bps
attr unit bps
par ManetNetwork.dsdvRouter[0].wlan[0].mac.dcf.rateSelection responseCtsFrameBitrate -1bps
attr unit bps
par ManetNetwork.dsdvRouter[0].wlan[0].mac.dcf.rateSelection dataFrameBitrate 2e+06bps
attr unit bps
par ManetNetwork.dsdvRouter[0].wlan[0].mac.dcf.rateSelection dataFrameBandwidth "nan Hz"
attr unit Hz
par ManetNetwork.dsdvRouter[0].wlan[0].mac.dcf.rateSelection dataFrameNumSpatialStreams -1
par ManetNetwork.dsdvRouter[0].wlan[0].mac.dcf.rateSelection mgmtFrameBitrate -1bps
attr unit bps
par ManetNetwork.dsdvRouter[0].wlan[0].mac.dcf.rateSelection controlFrameBitrate -1bps
attr unit bps
par ManetNetwork.dsdvRouter[0].wlan[0].mac.dcf.recoveryProcedure typename "\"inet.linklayer.ieee80211.mac.originator.NonQosRecoveryProcedure\""
par ManetNetwork.dsdvRouter[0].wlan[0].mac.dcf.recoveryProcedure cwCalculatorModule "\"^.channelAccess\""
par ManetNetwork.dsdvRouter[0].wlan[0].mac.dcf.recoveryProcedure rtsPolicyModule "\"^.rtsPolicy\""
par ManetNetwork.dsdvRouter[0].wlan[0].mac.dcf.recoveryProcedure shortRetryLimit 7
par ManetNetwork.dsdvRouter[0].wlan[0].mac.dcf.recoveryProcedure longRetryLimit 4
scalar ManetNetwork.dsdvRouter[0].wlan[0].mac.dcf.recoveryProcedure retryLimitReached:count 0
attr recordingmode count
attr title "retry limit reached, count"
par ManetNetwork.dsdvRouter[0].wlan[0].mac.dcf.originatorProtectionMechanism typename "\"inet.linklayer.ieee80211.mac.protectionmechanism.OriginatorProtectionMechanism\""
par ManetNetwork.dsdvRouter[0].wlan[0].mac.dcf.originatorProtectionMechanism rateSelectionModule "\"^.rateSelection\""
par ManetNetwork.dsdvRouter[0].wlan[0].mac.dcf.ackHandler typename "\"inet.linklayer.ieee80211.mac.originator.AckHandler\""
par ManetNetwork.dsdvRouter[0].wlan[0].mac.dcf.originatorAckPolicy typename "\"inet.linklayer.ieee80211.mac.originator.OriginatorAckPolicy\""
par ManetNetwork.dsdvRouter[0].wlan[0].mac.dcf.originatorAckPolicy rateSelectionModule "\"^.rateSelection\""
par ManetNetwork.dsdvRouter[0].wlan[0].mac.dcf.originatorAckPolicy ackTimeout -1s
attr unit s
par ManetNetwork.dsdvRouter[0].wlan[0].mac.dcf.recipientAckPolicy typename "\"inet.linklayer.ieee80211.mac.recipient.RecipientAckPolicy\""
par ManetNetwork.dsdvRouter[0].wlan[0].mac.dcf.recipientAckPolicy rateSelectionModule "\"^.rateSelection\""
par ManetNetwork.dsdvRouter[0].wlan[0].mac.dcf.rtsPolicy typename "\"inet.linklayer.ieee80211.mac.originator.RtsPolicy\""
par ManetNetwork.dsdvRouter[0].wlan[0].mac.dcf.rtsPolicy rateSelectionModule "\"^.rateSelection\""
par ManetNetwork.dsdvRouter[0].wlan[0].mac.dcf.rtsPolicy ctsTimeout -1s
attr unit s
par ManetNetwork.dsdvRouter[0].wlan[0].mac.dcf.rtsPolicy rtsThreshold 2346B
attr unit B
par ManetNetwork.dsdvRouter[0].wlan[0].mac.dcf.ctsPolicy typename "\"inet.linklayer.ieee80211.mac.recipient.CtsPolicy\""
par ManetNetwork.dsdvRouter[0].wlan[0].mac.dcf.ctsPolicy rxModule "\"^.^.rx\""
par ManetNetwork.dsdvRouter[0].wlan[0].mac.dcf.ctsPolicy rateSelectionModule "\"^.rateSelection\""
par ManetNetwork.dsdvRouter[0].wlan[0].mac.dcf typename "\"inet.linklayer.ieee80211.mac.coordinationfunction.Dcf\""
par ManetNetwork.dsdvRouter[0].wlan[0].mac.dcf rxModule "\"^.rx\""
par ManetNetwork.dsdvRouter[0].wlan[0].mac.dcf txModule "\"^.tx\""
scalar ManetNetwork.dsdvRouter[0].wlan[0].mac.dcf packetReceivedFromPeer:count 102
attr interpolationmode none
attr recordingmode count
attr title "packets received, count"
scalar ManetNetwork.dsdvRouter[0].wlan[0].mac.dcf packetReceivedFromPeer:sum(packetBytes) 7344
attr interpolationmode none
attr recordingmode sum(packetBytes)
attr title "packets received, sum(packetBytes)"
scalar ManetNetwork.dsdvRouter[0].wlan[0].mac.dcf packetReceivedFromPeerUnicast:count 0
attr interpolationmode none
attr recordingmode count
attr source ieee80211Unicast(packetReceivedFromPeer)
attr title "packets received: unicast, count"
scalar ManetNetwork.dsdvRouter[0].wlan[0].mac.dcf packetReceivedFromPeerUnicast:sum(packetBytes) 0
attr interpolationmode none
attr recordingmode sum(packetBytes)
attr source ieee80211Unicast(packetReceivedFromPeer)
attr title "packets received: unicast, sum(packetBytes)"
scalar ManetNetwork.dsdvRouter[0].wlan[0].mac.dcf packetReceivedFromPeerMulticast:count 102
attr interpolationmode none
attr recordingmode count
attr source ieee80211Multicast(packetReceivedFromPeer)
attr title "packets received: multicast, count"
scalar ManetNetwork.dsdvRouter[0].wlan[0].mac.dcf packetReceivedFromPeerMulticast:sum(packetBytes) 7344
attr interpolationmode none
attr recordingmode sum(packetBytes)
attr source ieee80211Multicast(packetReceivedFromPeer)
attr title "packets received: multicast, sum(packetBytes)"
scalar ManetNetwork.dsdvRouter[0].wlan[0].mac.dcf packetReceivedFromPeerBroadcast:count 102
attr interpolationmode none
attr recordingmode count
attr source ieee80211Broadcast(packetReceivedFromPeer)
attr title "packets received: broadcast, count"
scalar ManetNetwork.dsdvRouter[0].wlan[0].mac.dcf packetReceivedFromPeerBroadcast:sum(packetBytes) 7344
attr interpolationmode none
attr recordingmode sum(packetBytes)
attr source ieee80211Broadcast(packetReceivedFromPeer)
attr title "packets received: broadcast, sum(packetBytes)"
scalar ManetNetwork.dsdvRouter[0].wlan[0].mac.dcf packetReceivedFromPeerWithRetry:count 0
attr interpolationmode none
attr recordingmode count
attr source ieee80211Retry(packetReceivedFromPeer)
attr title "packets received: with retry, count"
scalar ManetNetwork.dsdvRouter[0].wlan[0].mac.dcf packetReceivedFromPeerWithRetry:sum(packetBytes) 0
attr interpolationmode none
attr recordingmode sum(packetBytes)
attr source ieee80211Retry(packetReceivedFromPeer)
attr title "packets received: with retry, sum(packetBytes)"
scalar ManetNetwork.dsdvRouter[0].wlan[0].mac.dcf packetReceivedFromPeerWithoutRetry:count 102
attr interpolationmode none
attr recordingmode count
attr source ieee80211NotRetry(packetReceivedFromPeer)
attr title "packets received: without retry, count"
scalar ManetNetwork.dsdvRouter[0].wlan[0].mac.dcf packetReceivedFromPeerWithoutRetry:sum(packetBytes) 7344
attr interpolationmode none
attr recordingmode sum(packetBytes)
attr source ieee80211NotRetry(packetReceivedFromPeer)
attr title "packets received: without retry, sum(packetBytes)"
scalar ManetNetwork.dsdvRouter[0].wlan[0].mac.dcf packetSentToPeer:count 34
attr interpolationmode none
attr recordingmode count
attr title "packets sent, count"
scalar ManetNetwork.dsdvRouter[0].wlan[0].mac.dcf packetSentToPeer:sum(packetBytes) 2448
attr interpolationmode none
attr recordingmode sum(packetBytes)
attr title "packets sent, sum(packetBytes)"
scalar ManetNetwork.dsdvRouter[0].wlan[0].mac.dcf packetSentToPeerUnicast:count 0
attr interpolationmode none
attr recordingmode count
attr source ieee80211Unicast(packetSentToPeer)
attr title "packets sent: unicast, count"
scalar ManetNetwork.dsdvRouter[0].wlan[0].mac.dcf packetSentToPeerUnicast:sum(packetBytes) 0
attr interpolationmode none
attr recordingmode sum(packetBytes)
attr source ieee80211Unicast(packetSentToPeer)
attr title "packets sent: unicast, sum(packetBytes)"
scalar ManetNetwork.dsdvRouter[0].wlan[0].mac.dcf packetSentToPeerMulticast:count 34
attr interpolationmode none
attr recordingmode count
attr source ieee80211Multicast(packetSentToPeer)
attr title "packets sent: multicast, count"
scalar ManetNetwork.dsdvRouter[0].wlan[0].mac.dcf packetSentToPeerMulticast:sum(packetBytes) 2448
attr interpolationmode none
attr recordingmode sum(packetBytes)
attr source ieee80211Multicast(packetSentToPeer)
attr title "packets sent: multicast, sum(packetBytes)"
scalar ManetNetwork.dsdvRouter[0].wlan[0].mac.dcf packetSentToPeerBroadcast:count 34
attr interpolationmode none
attr recordingmode count
attr source ieee80211Broadcast(packetSentToPeer)
attr title "packets sent: broadcast , count"
scalar ManetNetwork.dsdvRouter[0].wlan[0].mac.dcf packetSentToPeerBroadcast:sum(packetBytes) 2448
attr interpolationmode none
attr recordingmode sum(packetBytes)
attr source ieee80211Broadcast(packetSentToPeer)
attr title "packets sent: broadcast , sum(packetBytes)"
scalar ManetNetwork.dsdvRouter[0].wlan[0].mac.dcf packetSentToPeerWithRetry:count 0
attr interpolationmode none
attr recordingmode count
attr source ieee80211Retry(packetSentToPeer)
attr title "packets sent: with retry, count"
scalar ManetNetwork.dsdvRouter[0].wlan[0].mac.dcf packetSentToPeerWithRetry:sum(packetBytes) 0
attr interpolationmode none
attr recordingmode sum(packetBytes)
attr source ieee80211Retry(packetSentToPeer)
attr title "packets sent: with retry, sum(packetBytes)"
scalar ManetNetwork.dsdvRouter[0].wlan[0].mac.dcf packetSentToPeerWithoutRetry:count 34
attr interpolationmode none
attr recordingmode count
attr source ieee80211NotRetry(packetSentToPeer)
attr title "packets sent: without retry, count"
scalar ManetNetwork.dsdvRouter[0].wlan[0].mac.dcf packetSentToPeerWithoutRetry:sum(packetBytes) 2448
attr interpolationmode none
attr recordingmode sum(packetBytes)
attr source ieee80211NotRetry(packetSentToPeer)
attr title "packets sent: without retry, sum(packetBytes)"
scalar ManetNetwork.dsdvRouter[0].wlan[0].mac.dcf packetDrop:count 0
attr interpolationmode none
attr recordingmode count
attr source packetDropped
attr title "packet drops, count"
scalar ManetNetwork.dsdvRouter[0].wlan[0].mac.dcf packetDrop:sum(packetBytes) 0
attr interpolationmode none
attr recordingmode sum(packetBytes)
attr source packetDropped
attr title "packet drops, sum(packetBytes)"
scalar ManetNetwork.dsdvRouter[0].wlan[0].mac.dcf packetDropNotAddressedToUs:count 0
attr interpolationmode none
attr recordingmode count
attr source packetDropReasonIsNotAddressedToUs(packetDropped)
attr title "packet drops: not addressed to us, count"
scalar ManetNetwork.dsdvRouter[0].wlan[0].mac.dcf packetDropNotAddressedToUs:sum(packetBytes) 0
attr interpolationmode none
attr recordingmode sum(packetBytes)
attr source packetDropReasonIsNotAddressedToUs(packetDropped)
attr title "packet drops: not addressed to us, sum(packetBytes)"
scalar ManetNetwork.dsdvRouter[0].wlan[0].mac.dcf packetDropQueueOverflow:count 0
attr interpolationmode none
attr recordingmode count
attr source packetDropReasonIsQueueOverflow(packetDropped)
attr title "packet drops: queue overflow, count"
scalar ManetNetwork.dsdvRouter[0].wlan[0].mac.dcf packetDropQueueOverflow:sum(packetBytes) 0
attr interpolationmode none
attr recordingmode sum(packetBytes)
attr source packetDropReasonIsQueueOverflow(packetDropped)
attr title "packet drops: queue overflow, sum(packetBytes)"
scalar ManetNetwork.dsdvRouter[0].wlan[0].mac.dcf packetDropRetryLimitReached:count 0
attr interpolationmode none
attr recordingmode count
attr source packetDropReasonIsRetryLimitReached(packetDropped)
attr title "packet drops: retry limit reached, count"
scalar ManetNetwork.dsdvRouter[0].wlan[0].mac.dcf packetDropRetryLimitReached:sum(packetBytes) 0
attr interpolationmode none
attr recordingmode sum(packetBytes)
attr source packetDropReasonIsRetryLimitReached(packetDropped)
attr title "packet drops: retry limit reached, sum(packetBytes)"
scalar ManetNetwork.dsdvRouter[0].wlan[0].mac.dcf linkBroken:count 0
attr interpolationmode none
attr recordingmode count
attr title "link breaks, count"
scalar ManetNetwork.dsdvRouter[0].wlan[0].mac.dcf frameSequenceFinished:count 34
attr recordingmode count
attr title "finished frame sequences, count"
statistic ManetNetwork.dsdvRouter[0].wlan[0].mac.dcf frameSequenceDuration:histogram
field count 34
field mean 0.00048
field stddev 0
field min 0.00048
field max 0.00048
field sum 0.01632
field sqrsum 7.8336e-06
attr recordingmode histogram
attr source frameSequenceDuration(frameSequenceFinished)
attr title "frame sequence durations"
bin	-inf	0
bin	0	34
bin	0.01	0
bin	0.02	0
bin	0.03	0
bin	0.04	0
bin	0.05	0
bin	0.06	0
bin	0.07	0
bin	0.08	0
bin	0.09	0
bin	0.1	0
bin	0.11	0
bin	0.12	0
bin	0.13	0
bin	0.14	0
bin	0.15	0
bin	0.16	0
bin	0.17	0
bin	0.18	0
bin	0.19	0
bin	0.2	0
bin	0.21	0
bin	0.22	0
bin	0.23	0
bin	0.24	0
bin	0.25	0
bin	0.26	0
bin	0.27	0
bin	0.28	0
bin	0.29	0
bin	0.3	0
bin	0.31	0
bin	0.32	0
bin	0.33	0
bin	0.34	0
bin	0.35	0
bin	0.36	0
bin	0.37	0
bin	0.38	0
bin	0.39	0
bin	0.4	0
bin	0.41	0
bin	0.42	0
bin	0.43	0
bin	0.44	0
bin	0.45	0
bin	0.46	0
bin	0.47	0
bin	0.48	0
bin	0.49	0
bin	0.5	0
bin	0.51	0
statistic ManetNetwork.dsdvRouter[0].wlan[0].mac.dcf frameSequenceNumPackets:histogram
field count 34
field mean 1
field stddev 0
field min 1
field max 1
field sum 34
field sqrsum 34
attr recordingmode histogram
attr source frameSequenceNumPackets(frameSequenceFinished)
attr title "frame sequences: number of packets"
bin	-inf	0
bin	0	0
bin	1	34
bin	2	0
par ManetNetwork.dsdvRouter[0].wlan[0].mac.ds typename "\"inet.linklayer.ieee80211.mac.Ds\""
par ManetNetwork.dsdvRouter[0].wlan[0].mac.ds mibModule "\"ManetNetwork.dsdvRouter[0].wlan[0].mib\""
par ManetNetwork.dsdvRouter[0].wlan[0].mac.rx typename "\"inet.linklayer.ieee80211.mac.Rx\""
par ManetNetwork.dsdvRouter[0].wlan[0].mac.tx typename "\"inet.linklayer.ieee80211.mac.Tx\""
par ManetNetwork.dsdvRouter[0].wlan[0].mac.tx rxModule "\"^.rx\""
par ManetNetwork.dsdvRouter[0].wlan[0].mac typename "\"inet.linklayer.ieee80211.mac.Ieee80211Mac\""
par ManetNetwork.dsdvRouter[0].wlan[0].mac interfaceTableModule "\"ManetNetwork.dsdvRouter[0].interfaceTable\""
par ManetNetwork.dsdvRouter[0].wlan[0].mac mibModule "\"ManetNetwork.dsdvRouter[0].wlan[0].mib\""
par ManetNetwork.dsdvRouter[0].wlan[0].mac modeSet "\"g(mixed)\""
attr enum a,b,g(erp),g(mixed),n(mixed-2.4Ghz),p,ac
par ManetNetwork.dsdvRouter[0].wlan[0].mac fcsMode "\"declared\""
attr enum declared,computed
par ManetNetwork.dsdvRouter[0].wlan[0].mac initialRadioMode "\"receiver\""
attr enum off,sleep,receiver,transmitter,transceiver
par ManetNetwork.dsdvRouter[0].wlan[0].mac mtu 2304B
attr unit B
par ManetNetwork.dsdvRouter[0].wlan[0].mac qosStation false
scalar ManetNetwork.dsdvRouter[0].wlan[0].mac packetReceivedFromLower:count 102
attr interpolationmode none
attr recordingmode count
attr title "packets received from lower layer, count"
scalar ManetNetwork.dsdvRouter[0].wlan[0].mac packetReceivedFromLower:sum(packetBytes) 7344
attr interpolationmode none
attr recordingmode sum(packetBytes)
attr title "packets received from lower layer, sum(packetBytes)"
scalar ManetNetwork.dsdvRouter[0].wlan[0].mac packetSentToLower:count 34
attr interpolationmode none
attr recordingmode count
attr title "packets sent to lower layer, count"
scalar ManetNetwork.dsdvRouter[0].wlan[0].mac packetSentToLower:sum(packetBytes) 2448
attr interpolationmode none
attr recordingmode sum(packetBytes)
attr title "packets sent to lower layer, sum(packetBytes)"
scalar ManetNetwork.dsdvRouter[0].wlan[0].mac packetReceivedFromUpper:count 34
attr interpolationmode none
attr recordingmode count
attr title "packets received from upper layer, count"
scalar ManetNetwork.dsdvRouter[0].wlan[0].mac packetReceivedFromUpper:sum(packetBytes) 1496
attr interpolationmode none
attr recordingmode sum(packetBytes)
attr title "packets received from upper layer, sum(packetBytes)"
scalar ManetNetwork.dsdvRouter[0].wlan[0].mac packetSentToUpper:count 102
attr interpolationmode none
attr recordingmode count
attr title "packets sent to upper layer, count"
scalar ManetNetwork.dsdvRouter[0].wlan[0].mac packetSentToUpper:sum(packetBytes) 4488
attr interpolationmode none
attr recordingmode sum(packetBytes)
attr title "packets sent to upper layer, sum(packetBytes)"
scalar ManetNetwork.dsdvRouter[0].wlan[0].mac packetDrop:count 0
attr interpolationmode none
attr recordingmode count
attr source packetDropped
attr title "packet drops, count"
scalar ManetNetwork.dsdvRouter[0].wlan[0].mac packetDrop:sum(packetBytes) 0
attr interpolationmode none
attr recordingmode sum(packetBytes)
attr source packetDropped
attr title "packet drops, sum(packetBytes)"
scalar ManetNetwork.dsdvRouter[0].wlan[0].mac packetDropIncorrectlyReceived:count 0
attr interpolationmode none
attr recordingmode count
attr source packetDropReasonIsIncorrectlyReceived(packetDropped)
attr title "packet drops: incorrectly received, count"
scalar ManetNetwork.dsdvRouter[0].wlan[0].mac packetDropIncorrectlyReceived:sum(packetBytes) 0
attr interpolationmode none
attr recordingmode sum(packetBytes)
attr source packetDropReasonIsIncorrectlyReceived(packetDropped)
attr title "packet drops: incorrectly received, sum(packetBytes)"
scalar ManetNetwork.dsdvRouter[0].wlan[0].mac packetDropNotAddressedToUs:count 0
attr interpolationmode none
attr recordingmode count
attr source packetDropReasonIsNotAddressedToUs(packetDropped)
attr title "packet drops: not addressed to us, count"
scalar ManetNetwork.dsdvRouter[0].wlan[0].mac packetDropNotAddressedToUs:sum(packetBytes) 0
attr interpolationmode none
attr recordingmode sum(packetBytes)
attr source packetDropReasonIsNotAddressedToUs(packetDropped)
attr title "packet drops: not addressed to us, sum(packetBytes)"
scalar ManetNetwork.dsdvRouter[0].wlan[0].mac packetDropQueueOverflow:count 0
attr interpolationmode none
attr recordingmode count
attr source packetDropReasonIsQueueOverflow(packetDropped)
attr title "packet drops: queue overflow, count"
scalar ManetNetwork.dsdvRouter[0].wlan[0].mac packetDropQueueOverflow:sum(packetBytes) 0
attr interpolationmode none
attr recordingmode sum(packetBytes)
attr source packetDropReasonIsQueueOverflow(packetDropped)
attr title "packet drops: queue overflow, sum(packetBytes)"
scalar ManetNetwork.dsdvRouter[0].wlan[0].mac packetDropRetryLimitReached:count 0
attr interpolationmode none
attr recordingmode count
attr source packetDropReasonIsRetryLimitReached(packetDropped)
attr title "packet drops: retry limit reached, count"
scalar ManetNetwork.dsdvRouter[0].wlan[0].mac packetDropRetryLimitReached:sum(packetBytes) 0
attr interpolationmode none
attr recordingmode sum(packetBytes)
attr source packetDropReasonIsRetryLimitReached(packetDropped)
attr title "packet drops: retry limit reached, sum(packetBytes)"
scalar ManetNetwork.dsdvRouter[0].wlan[0].mac packetDropDuplicateDetected:count 0
attr interpolationmode none
attr recordingmode count
attr source packetDropReasonIsDuplicateDetected(packetDropped)
attr title "packet drops: duplicate detected, count"
scalar ManetNetwork.dsdvRouter[0].wlan[0].mac packetDropDuplicateDetected:sum(packetBytes) 0
attr interpolationmode none
attr recordingmode sum(packetBytes)
attr source packetDropReasonIsDuplicateDetected(packetDropped)
attr title "packet drops: duplicate detected, sum(packetBytes)"
scalar ManetNetwork.dsdvRouter[0].wlan[0].mac packetDropOther:count 0
attr interpolationmode none
attr recordingmode count
attr source packetDropReasonIsOther(packetDropped)
attr title "packet drops: other, count"
scalar ManetNetwork.dsdvRouter[0].wlan[0].mac packetDropOther:sum(packetBytes) 0
attr interpolationmode none
attr recordingmode sum(packetBytes)
attr source packetDropReasonIsOther(packetDropped)
attr title "packet drops: other, sum(packetBytes)"
scalar ManetNetwork.dsdvRouter[0].wlan[0].mac linkBroken:count 0
attr interpolationmode none
attr recordingmode count
attr title "link breaks, count"
par ManetNetwork.dsdvRouter[0].wlan[0].radio.antenna typename "\"inet.physicallayer.wireless.common.antenna.IsotropicAntenna\""
par ManetNetwork.dsdvRouter[0].wlan[0].radio.antenna mobilityModule "\"^.^.^.mobility\""
par ManetNetwork.dsdvRouter[0].wlan[0].radio.antenna numAntennas 1
par ManetNetwork.dsdvRouter[0].wlan[0].radio.transmitter typename "\"inet.physicallayer.wireless.ieee80211.packetlevel.Ieee80211ScalarTransmitter\""
par ManetNetwork.dsdvRouter[0].wlan[0].radio.transmitter preambleDuration -1s
attr unit s
par ManetNetwork.dsdvRouter[0].wlan[0].radio.transmitter headerLength 192b
attr unit b
par ManetNetwork.dsdvRouter[0].wlan[0].radio.transmitter bitrate 2e+06bps
attr unit bps
par ManetNetwork.dsdvRouter[0].wlan[0].radio.transmitter power 0.005W
attr unit W
par ManetNetwork.dsdvRouter[0].wlan[0].radio.transmitter centerFrequency 2.412e+09Hz
attr unit Hz
par ManetNetwork.dsdvRouter[0].wlan[0].radio.transmitter bandwidth "nan Hz"
attr unit Hz
par ManetNetwork.dsdvRouter[0].wlan[0].radio.transmitter codeRate 1
par ManetNetwork.dsdvRouter[0].wlan[0].radio.transmitter modulation "\"BPSK\""
par ManetNetwork.dsdvRouter[0].wlan[0].radio.transmitter opMode "\"g(mixed)\""
attr enum a,b,g(erp),g(mixed),n(mixed-2.4Ghz),p,ac
par ManetNetwork.dsdvRouter[0].wlan[0].radio.transmitter bandName "\"2.4 GHz\""
attr enum "2.4 GHz,5 GHz,5 GHz (20 MHz),5 GHz (40 MHz),5 GHz (80 MHz),5 GHz (160 MHz),5.9 GHz"
par ManetNetwork.dsdvRouter[0].wlan[0].radio.transmitter channelNumber 0
par ManetNetwork.dsdvRouter[0].wlan[0].radio.receiver.errorModel typename "\"inet.physicallayer.wireless.ieee80211.packetlevel.errormodel.Ieee80211NistErrorModel\""
par ManetNetwork.dsdvRouter[0].wlan[0].radio.receiver.errorModel corruptionMode "\"packet\""
attr enum packet,chunk,byte,bit
par ManetNetwork.dsdvRouter[0].wlan[0].radio.receiver.errorModel snirMode "\"min\""
attr enum min,mean
par ManetNetwork.dsdvRouter[0].wlan[0].radio.receiver.errorModel snirOffset 0dB
attr unit dB
par ManetNetwork.dsdvRouter[0].wlan[0].radio.receiver typename "\"inet.physicallayer.wireless.ieee80211.packetlevel.Ieee80211ScalarReceiver\""
par ManetNetwork.dsdvRouter[0].wlan[0].radio.receiver snirThreshold 4dB
attr unit dB
par ManetNetwork.dsdvRouter[0].wlan[0].radio.receiver snirThresholdMode "\"min\""
attr enum min,mean
par ManetNetwork.dsdvRouter[0].wlan[0].radio.receiver energyDetection -85dBm
attr unit dBm
par ManetNetwork.dsdvRouter[0].wlan[0].radio.receiver sensitivity -85dBm
attr unit dBm
par ManetNetwork.dsdvRouter[0].wlan[0].radio.receiver centerFrequency 2.412e+09Hz
attr unit Hz
par ManetNetwork.dsdvRouter[0].wlan[0].radio.receiver bandwidth 2.2e+07Hz
attr unit Hz
par ManetNetwork.dsdvRouter[0].wlan[0].radio.receiver modulation "\"BPSK\""
par ManetNetwork.dsdvRouter[0].wlan[0].radio.receiver opMode "\"g(mixed)\""
attr enum a,b,g(erp),g(mixed),n(mixed-2.4Ghz),p,ac
par ManetNetwork.dsdvRouter[0].wlan[0].radio.receiver bandName "\"2.4 GHz\""
attr enum "2.4 GHz,5 GHz,5 GHz (20 MHz),5 GHz (40 MHz),5 GHz (80 MHz),5 GHz (160 MHz),5.9 GHz"
par ManetNetwork.dsdvRouter[0].wlan[0].radio.receiver channelNumber 0
par ManetNetwork.dsdvRouter[0].wlan[0].radio typename "\"inet.physicallayer.wireless.ieee80211.packetlevel.Ieee80211ScalarRadio\""
par ManetNetwork.dsdvRouter[0].wlan[0].radio radioMediumModule "\"radioMedium\""
par ManetNetwork.dsdvRouter[0].wlan[0].radio energySourceModule "\"\""
par ManetNetwork.dsdvRouter[0].wlan[0].radio initialRadioMode "\"off\""
attr enum off,sleep,receiver,transmitter,transceiver
par ManetNetwork.dsdvRouter[0].wlan[0].radio switchingTimes "\"ms 0 0 0 0 0 0 0 0 0 0 0 0 0 0 0 0 0 0 0 0 0 0 0 0 0\""
par ManetNetwork.dsdvRouter[0].wlan[0].radio sendRawBytes false
par ManetNetwork.dsdvRouter[0].wlan[0].radio separateTransmissionParts false
par ManetNetwork.dsdvRouter[0].wlan[0].radio separateReceptionParts false
par ManetNetwork.dsdvRouter[0].wlan[0].radio displayCommunicationRange false
par ManetNetwork.dsdvRouter[0].wlan[0].radio displayInterferenceRange false
par ManetNetwork.dsdvRouter[0].wlan[0].radio centerFrequency 2.412e+09Hz
attr unit Hz
par ManetNetwork.dsdvRouter[0].wlan[0].radio bandwidth "nan Hz"
attr unit Hz
par ManetNetwork.dsdvRouter[0].wlan[0].radio signalAnalogRepresentation "\"scalar\""
attr enum scalar,dimensional
par ManetNetwork.dsdvRouter[0].wlan[0].radio opMode "\"g(mixed)\""
attr enum a,b,g(erp),g(mixed),n(mixed-2.4Ghz),p,ac
par ManetNetwork.dsdvRouter[0].wlan[0].radio bandName "\"2.4 GHz\""
attr enum "2.4 GHz,5 GHz,5 GHz (20 MHz),5 GHz (40 MHz),5 GHz (80 MHz),5 GHz (160 MHz),5.9 GHz"
par ManetNetwork.dsdvRouter[0].wlan[0].radio channelNumber 0
par ManetNetwork.dsdvRouter[0].wlan[0].radio crcMode "\"declared\""
attr enum declared,computed
statistic ManetNetwork.dsdvRouter[0].wlan[0].radio minSnir:histogram
field count 102
field mean 2896.4413364422
field stddev 2879.955025786
field min 738.5884634367
field max 15060.229315101
field sum 295437.01631711
field sqrsum 1693424222.3816
attr recordingmode histogram
attr source minimumSnir(packetSentToUpper)
attr title "Min SNIR"
bin	-inf	0
bin	0	0
bin	200	0
bin	400	0
bin	600	11
bin	800	8
bin	1000	7
bin	1200	8
bin	1400	9
bin	1600	6
bin	1800	7
bin	2000	6
bin	2200	0
bin	2400	4
bin	2600	1
bin	2800	5
bin	3000	1
bin	3200	1
bin	3400	5
bin	3600	0
bin	3800	2
bin	4000	3
bin	4200	1
bin	4400	5
bin	4600	0
bin	4800	0
bin	5000	0
bin	5200	0
bin	5400	0
bin	5600	0
bin	5800	2
bin	6000	1
bin	6200	0
bin	6400	1
bin	6600	0
bin	6800	0
bin	7000	0
bin	7200	0
bin	7400	1
bin	7600	1
bin	7800	0
bin	8000	2
bin	8200	0
bin	8400	0
bin	8600	0
bin	8800	0
bin	9000	0
bin	9200	0
bin	9400	0
bin	9600	0
bin	9800	0
bin	10000	0
bin	10200	0
bin	10400	0
bin	10600	0
bin	10800	0
bin	11000	0
bin	11200	0
bin	11400	0
bin	11600	0
bin	11800	0
bin	12000	0
bin	12200	0
bin	12400	0
bin	12600	0
bin	12800	0
bin	13000	0
bin	13200	0
bin	13400	2
bin	13600	0
bin	13800	0
bin	14000	0
bin	14200	0
bin	14400	0
bin	14600	0
bin	14800	1
bin	15000	1
bin	15200	0
bin	15400	0
bin	15600	0
bin	15800	0
bin	16000	0
bin	16200	0
bin	16400	0
bin	16600	0
bin	16800	0
bin	17000	0
bin	17200	0
bin	17400	0
bin	17600	0
bin	17800	0
bin	18000	0
bin	18200	0
bin	18400	0
bin	18600	0
bin	18800	0
statistic ManetNetwork.dsdvRouter[0].wlan[0].radio packetErrorRate:histogram
field count 102
field mean 0
field stddev 0
field min 0
field max 0
field sum 0
field sqrsum 0
attr recordingmode histogram
attr source packetErrorRate(packetSentToUpper)
attr title "Packet error rate"
bin	-inf	0
bin	-0.5	0
bin	-0.48	0
bin	-0.46	0
bin	-0.44	0
bin	-0.42	0
bin	-0.4	0
bin	-0.38	0
bin	-0.36	0
bin	-0.34	0
bin	-0.32	0
bin	-0.3	0
bin	-0.28	0
bin	-0.26	0
bin	-0.24	0
bin	-0.22	0
bin	-0.2	0
bin	-0.18	0
bin	-0.16	0
bin	-0.14	0
bin	-0.12	0
bin	-0.1	0
bin	-0.08	0
bin	-0.06	0
bin	-0.04	0
bin	-0.02	0
bin	0	102
bin	0.02	0
bin	0.04	0
bin	0.06	0
bin	0.08	0
bin	0.1	0
bin	0.12	0
bin	0.14	0
bin	0.16	0
bin	0.18	0
bin	0.2	0
bin	0.22	0
bin	0.24	0
bin	0.26	0
bin	0.28	0
bin	0.3	0
bin	0.32	0
bin	0.34	0
bin	0.36	0
bin	0.38	0
bin	0.4	0
bin	0.42	0
bin	0.44	0
bin	0.46	0
bin	0.48	0
bin	0.5	0
statistic ManetNetwork.dsdvRouter[0].wlan[0].radio bitErrorRate:histogram
field count 0
field mean nan
field stddev nan
field min nan
field max nan
field sum 0
field sqrsum 0
attr recordingmode histogram
attr source bitErrorRate(packetSentToUpper)
attr title "Bit error rate"
bin	-inf	0
bin	0	0
bin	1	0
statistic ManetNetwork.dsdvRouter[0].wlan[0].radio symbolErrorRate:histogram
field count 0
field mean nan
field stddev nan
field min nan
field max nan
field sum 0
field sqrsum 0
attr recordingmode histogram
attr source symbolErrorRate(packetSentToUpper)
attr title "Symbol error rate"
bin	-inf	0
bin	0	0
bin	1	0
scalar ManetNetwork.dsdvRouter[0].wlan[0].radio transmissionState:count 136
attr interpolationmode sample-hold
attr recordingmode count
attr source transmissionStateChanged
attr title "Radio transmission state, count"
scalar ManetNetwork.dsdvRouter[0].wlan[0].radio receptionState:count 275
attr interpolationmode sample-hold
attr recordingmode count
attr source receptionStateChanged
attr title "Radio reception state, count"
scalar ManetNetwork.dsdvRouter[0].wlan[0].radio radioMode:count 71
attr interpolationmode sample-hold
attr recordingmode count
attr source radioModeChanged
attr title "Radio mode, count"
statistic ManetNetwork.dsdvRouter[0].wlan[0].radio radioChannel:histogram
field count 1
field mean 0
field stddev nan
field min 0
field max 0
field sum 0
field sqrsum 0
attr interpolationmode sample-hold
attr recordingmode histogram
attr source radioChannelChanged
attr title "Radio channel"
bin	-inf	0
bin	-0.5	0
bin	-0.48	0
bin	-0.46	0
bin	-0.44	0
bin	-0.42	0
bin	-0.4	0
bin	-0.38	0
bin	-0.36	0
bin	-0.34	0
bin	-0.32	0
bin	-0.3	0
bin	-0.28	0
bin	-0.26	0
bin	-0.24	0
bin	-0.22	0
bin	-0.2	0
bin	-0.18	0
bin	-0.16	0
bin	-0.14	0
bin	-0.12	0
bin	-0.1	0
bin	-0.08	0
bin	-0.06	0
bin	-0.04	0
bin	-0.02	0
bin	0	1
bin	0.02	0
bin	0.04	0
bin	0.06	0
bin	0.08	0
bin	0.1	0
bin	0.12	0
bin	0.14	0
bin	0.16	0
bin	0.18	0
bin	0.2	0
bin	0.22	0
bin	0.24	0
bin	0.26	0
bin	0.28	0
bin	0.3	0
bin	0.32	0
bin	0.34	0
bin	0.36	0
bin	0.38	0
bin	0.4	0
bin	0.42	0
bin	0.44	0
bin	0.46	0
bin	0.48	0
bin	0.5	0
par ManetNetwork.dsdvRouter[0].wlan[0] typename "\"inet.linklayer.ieee80211.Ieee80211Interface\""
par ManetNetwork.dsdvRouter[0].wlan[0] displayStringTextFormat "\"%a (%i)\\n%m\""
par ManetNetwork.dsdvRouter[0].wlan[0] recordPcap false
par ManetNetwork.dsdvRouter[0].wlan[0] numPcapRecorders 0
par ManetNetwork.dsdvRouter[0].wlan[0] interfaceTableModule "\"ManetNetwork.dsdvRouter[0].interfaceTable\""
par ManetNetwork.dsdvRouter[0].wlan[0] energySourceModule "\"\""
par ManetNetwork.dsdvRouter[0].wlan[0] opMode "\"g(mixed)\""
attr enum a,b,g(erp),g(mixed),n(mixed-2.4Ghz),p,ac
par ManetNetwork.dsdvRouter[0].wlan[0] address "\"0A-AA-00-00-00-01\""
attr mutable ""
par ManetNetwork.dsdvRouter[0].wlan[0] protocol "\"\""
par ManetNetwork.dsdvRouter[0].wlan[0] bitrate 2e+06bps
attr unit bps
scalar ManetNetwork.dsdvRouter[0].wlan[0] packetDropInterfaceDown:count 0
attr interpolationmode none
attr recordingmode count
attr source packetDropReasonIsInterfaceDown(packetDropped)
attr title "packet drops: interface down, count"
scalar ManetNetwork.dsdvRouter[0].wlan[0] packetDropInterfaceDown:sum(packetBytes) 0
attr interpolationmode none
attr recordingmode sum(packetBytes)
attr source packetDropReasonIsInterfaceDown(packetDropped)
attr title "packet drops: interface down, sum(packetBytes)"
scalar ManetNetwork.dsdvRouter[0].wlan[0] packetDropNoCarrier:count 0
attr interpolationmode none
attr recordingmode count
attr source packetDropReasonIsNoCarrier(packetDropped)
attr title "packet drops: no carrier, count"
scalar ManetNetwork.dsdvRouter[0].wlan[0] packetDropNoCarrier:sum(packetBytes) 0
attr interpolationmode none
attr recordingmode sum(packetBytes)
attr source packetDropReasonIsNoCarrier(packetDropped)
attr title "packet drops: no carrier, sum(packetBytes)"
par ManetNetwork.dsdvRouter[0].ipv4.transportIn.channel typename "\"ned.IdealChannel\""
par ManetNetwork.dsdvRouter[0].ipv4.up.out[0].channel typename "\"ned.IdealChannel\""
par ManetNetwork.dsdvRouter[0].ipv4.lp.out[2].channel typename "\"ned.IdealChannel\""
par ManetNetwork.dsdvRouter[0].ipv4.ifIn.channel typename "\"ned.IdealChannel\""
par ManetNetwork.dsdvRouter[0].ipv4.configurator typename "\"inet.networklayer.configurator.ipv4.Ipv4NodeConfigurator\""
par ManetNetwork.dsdvRouter[0].ipv4.configurator interfaceTableModule "\"ManetNetwork.dsdvRouter[0].interfaceTable\""
par ManetNetwork.dsdvRouter[0].ipv4.configurator routingTableModule "\"ManetNetwork.dsdvRouter[0].ipv4.routingTable\""
par ManetNetwork.dsdvRouter[0].ipv4.configurator networkConfiguratorModule "\"configurator\""
par ManetNetwork.dsdvRouter[0].ipv4.configurator configureRoutingTable true
par ManetNetwork.dsdvRouter[0].ipv4.routingTable typename "\"inet.networklayer.ipv4.Ipv4RoutingTable\""
par ManetNetwork.dsdvRouter[0].ipv4.routingTable interfaceTableModule "\"ManetNetwork.dsdvRouter[0].interfaceTable\""
par ManetNetwork.dsdvRouter[0].ipv4.routingTable routerId "\"auto\""
par ManetNetwork.dsdvRouter[0].ipv4.routingTable netmaskRoutes "\"*\""
par ManetNetwork.dsdvRouter[0].ipv4.routingTable forwarding true
par ManetNetwork.dsdvRouter[0].ipv4.routingTable multicastForwarding false
par ManetNetwork.dsdvRouter[0].ipv4.routingTable useAdminDist false
par ManetNetwork.dsdvRouter[0].ipv4.routingTable routingFile "\"\""
par ManetNetwork.dsdvRouter[0].ipv4.natTable typename "\"inet.networklayer.ipv4.Ipv4NatTable\""
par ManetNetwork.dsdvRouter[0].ipv4.natTable networkProtocolModule "\"^.ip\""
par ManetNetwork.dsdvRouter[0].ipv4.natTable config "<config/> at content:1"
par ManetNetwork.dsdvRouter[0].ipv4.up typename "\"inet.common.MessageDispatcher\""
par ManetNetwork.dsdvRouter[0].ipv4.up displayStringTextFormat "\"processed %p pk (%l)\""
par ManetNetwork.dsdvRouter[0].ipv4.up forwardServiceRegistration true
par ManetNetwork.dsdvRouter[0].ipv4.up forwardProtocolRegistration true
par ManetNetwork.dsdvRouter[0].ipv4.igmp typename "\"inet.networklayer.ipv4.Igmpv2\""
par ManetNetwork.dsdvRouter[0].ipv4.igmp interfaceTableModule "\"ManetNetwork.dsdvRouter[0].interfaceTable\""
par ManetNetwork.dsdvRouter[0].ipv4.igmp routingTableModule "\"ManetNetwork.dsdvRouter[0].ipv4.routingTable\""
par ManetNetwork.dsdvRouter[0].ipv4.igmp crcMode "\"declared\""
attr enum declared,computed
par ManetNetwork.dsdvRouter[0].ipv4.igmp enabled true
par ManetNetwork.dsdvRouter[0].ipv4.igmp robustnessVariable 2
par ManetNetwork.dsdvRouter[0].ipv4.igmp queryInterval 125s
attr unit s
par ManetNetwork.dsdvRouter[0].ipv4.igmp queryResponseInterval 10s
attr unit s
par ManetNetwork.dsdvRouter[0].ipv4.igmp groupMembershipInterval 260s
attr unit s
par ManetNetwork.dsdvRouter[0].ipv4.igmp otherQuerierPresentInterval 255s
attr unit s
par ManetNetwork.dsdvRouter[0].ipv4.igmp startupQueryInterval 31.25s
attr unit s
par ManetNetwork.dsdvRouter[0].ipv4.igmp startupQueryCount 2
par ManetNetwork.dsdvRouter[0].ipv4.igmp lastMemberQueryInterval 1s
attr unit s
par ManetNetwork.dsdvRouter[0].ipv4.igmp lastMemberQueryCount 2
par ManetNetwork.dsdvRouter[0].ipv4.igmp unsolicitedReportInterval 10s
attr unit s
par ManetNetwork.dsdvRouter[0].ipv4.icmp typename "\"inet.networklayer.ipv4.Icmp\""
par ManetNetwork.dsdvRouter[0].ipv4.icmp interfaceTableModule "\"ManetNetwork.dsdvRouter[0].interfaceTable\""
par ManetNetwork.dsdvRouter[0].ipv4.icmp routingTableModule "\"ManetNetwork.dsdvRouter[0].ipv4.routingTable\""
par ManetNetwork.dsdvRouter[0].ipv4.icmp crcMode "\"declared\""
attr enum declared,computed
attr mutable ""
par ManetNetwork.dsdvRouter[0].ipv4.icmp quoteLength 8B
attr mutable ""
attr unit B
par ManetNetwork.dsdvRouter[0].ipv4.mp typename "\"inet.common.MessageDispatcher\""
par ManetNetwork.dsdvRouter[0].ipv4.mp displayStringTextFormat "\"processed %p pk (%l)\""
par ManetNetwork.dsdvRouter[0].ipv4.mp forwardServiceRegistration true
par ManetNetwork.dsdvRouter[0].ipv4.mp forwardProtocolRegistration true
par ManetNetwork.dsdvRouter[0].ipv4.ip typename "\"inet.networklayer.ipv4.Ipv4\""
par ManetNetwork.dsdvRouter[0].ipv4.ip interfaceTableModule "\"ManetNetwork.dsdvRouter[0].interfaceTable\""
par ManetNetwork.dsdvRouter[0].ipv4.ip routingTableModule "\"ManetNetwork.dsdvRouter[0].ipv4.routingTable\""
par ManetNetwork.dsdvRouter[0].ipv4.ip arpModule "\"ManetNetwork.dsdvRouter[0].ipv4.arp\""
par ManetNetwork.dsdvRouter[0].ipv4.ip icmpModule "\"ManetNetwork.dsdvRouter[0].ipv4.icmp\""
par ManetNetwork.dsdvRouter[0].ipv4.ip crcMode "\"declared\""
attr enum declared,computed
par ManetNetwork.dsdvRouter[0].ipv4.ip timeToLive 32
par ManetNetwork.dsdvRouter[0].ipv4.ip multicastTimeToLive 32
par ManetNetwork.dsdvRouter[0].ipv4.ip fragmentTimeout 60s
attr unit s
par ManetNetwork.dsdvRouter[0].ipv4.ip limitedBroadcast false
par ManetNetwork.dsdvRouter[0].ipv4.ip directBroadcastInterfaces "\"\""
scalar ManetNetwork.dsdvRouter[0].ipv4.ip packetDropAddressResolutionFailed:count 0
attr interpolationmode none
attr recordingmode count
attr source packetDropReasonIsAddressResolutionFailed(packetDropped)
attr title "packet drop: address resolution failed, count"
scalar ManetNetwork.dsdvRouter[0].ipv4.ip packetDropAddressResolutionFailed:sum(packetBytes) 0
attr interpolationmode none
attr recordingmode sum(packetBytes)
attr source packetDropReasonIsAddressResolutionFailed(packetDropped)
attr title "packet drop: address resolution failed, sum(packetBytes)"
scalar ManetNetwork.dsdvRouter[0].ipv4.ip packetDropHopLimitReached:count 0
attr interpolationmode none
attr recordingmode count
attr source packetDropReasonIsHopLimitReached(packetDropped)
attr title "packet drop: hop limit reached, count"
scalar ManetNetwork.dsdvRouter[0].ipv4.ip packetDropHopLimitReached:sum(packetBytes) 0
attr interpolationmode none
attr recordingmode sum(packetBytes)
attr source packetDropReasonIsHopLimitReached(packetDropped)
attr title "packet drop: hop limit reached, sum(packetBytes)"
scalar ManetNetwork.dsdvRouter[0].ipv4.ip packetDropForwardingDisabled:count 0
attr interpolationmode none
attr recordingmode count
attr source packetDropReasonIsForwardingDisabled(packetDropped)
attr title "packet drop: forwarding disabled, count"
scalar ManetNetwork.dsdvRouter[0].ipv4.ip packetDropForwardingDisabled:sum(packetBytes) 0
attr interpolationmode none
attr recordingmode sum(packetBytes)
attr source packetDropReasonIsForwardingDisabled(packetDropped)
attr title "packet drop: forwarding disabled, sum(packetBytes)"
scalar ManetNetwork.dsdvRouter[0].ipv4.ip packetDropNoInterfaceFound:count 0
attr interpolationmode none
attr recordingmode count
attr source packetDropReasonIsNoInterfaceFound(packetDropped)
attr title "packet drop: no interface found, count"
scalar ManetNetwork.dsdvRouter[0].ipv4.ip packetDropNoInterfaceFound:sum(packetBytes) 0
attr interpolationmode none
attr recordingmode sum(packetBytes)
attr source packetDropReasonIsNoInterfaceFound(packetDropped)
attr title "packet drop: no interface found, sum(packetBytes)"
scalar ManetNetwork.dsdvRouter[0].ipv4.ip packetDropNoRouteFound:count 0
attr interpolationmode none
attr recordingmode count
attr source packetDropReasonIsNoRouteFound(packetDropped)
attr title "packet drop: no route found, count"
scalar ManetNetwork.dsdvRouter[0].ipv4.ip packetDropNoRouteFound:sum(packetBytes) 0
attr interpolationmode none
attr recordingmode sum(packetBytes)
attr source packetDropReasonIsNoRouteFound(packetDropped)
attr title "packet drop: no route found, sum(packetBytes)"
scalar ManetNetwork.dsdvRouter[0].ipv4.ip packetDropUndefined:count 0
attr interpolationmode none
attr recordingmode count
attr source packetDropReasonIsUndefined(packetDropped)
attr title "packet drop: undefined, count"
scalar ManetNetwork.dsdvRouter[0].ipv4.ip packetDropUndefined:sum(packetBytes) 0
attr interpolationmode none
attr recordingmode sum(packetBytes)
attr source packetDropReasonIsUndefined(packetDropped)
attr title "packet drop: undefined, sum(packetBytes)"
par ManetNetwork.dsdvRouter[0].ipv4.arp typename "\"inet.networklayer.arp.ipv4.Arp\""
par ManetNetwork.dsdvRouter[0].ipv4.arp interfaceTableModule "\"ManetNetwork.dsdvRouter[0].interfaceTable\""
par ManetNetwork.dsdvRouter[0].ipv4.arp routingTableModule "\"ManetNetwork.dsdvRouter[0].ipv4.routingTable\""
par ManetNetwork.dsdvRouter[0].ipv4.arp retryTimeout 1s
attr unit s
par ManetNetwork.dsdvRouter[0].ipv4.arp retryCount 3
par ManetNetwork.dsdvRouter[0].ipv4.arp cacheTimeout 120s
attr unit s
par ManetNetwork.dsdvRouter[0].ipv4.arp proxyArpInterfaces "\"\""
scalar ManetNetwork.dsdvRouter[0].ipv4.arp arpReplySent:count 0
attr recordingmode count
attr source arpReplySent
attr title "ARP replies sent, count"
scalar ManetNetwork.dsdvRouter[0].ipv4.arp arpReplySent:sum(packetBytes) 0
attr recordingmode sum(packetBytes)
attr source arpReplySent
attr title "ARP replies sent, sum(packetBytes)"
scalar ManetNetwork.dsdvRouter[0].ipv4.arp arpRequestSent:count 0
attr recordingmode count
attr source arpRequestSent
attr title "ARP request sent, count"
scalar ManetNetwork.dsdvRouter[0].ipv4.arp arpRequestSent:sum(packetBytes) 0
attr recordingmode sum(packetBytes)
attr source arpRequestSent
attr title "ARP request sent, sum(packetBytes)"
scalar ManetNetwork.dsdvRouter[0].ipv4.arp arpResolutionFailed:count 0
attr recordingmode count
attr title "ARP failed resolutions, count"
scalar ManetNetwork.dsdvRouter[0].ipv4.arp arpResolutionCompleted:count 0
attr recordingmode count
attr title "ARP completed resolutions, count"
scalar ManetNetwork.dsdvRouter[0].ipv4.arp arpResolutionInitiated:count 0
attr recordingmode count
attr title "ARP initiated resolutions, count"
par ManetNetwork.dsdvRouter[0].ipv4.lp typename "\"inet.common.MessageDispatcher\""
par ManetNetwork.dsdvRouter[0].ipv4.lp displayStringTextFormat "\"processed %p pk (%l)\""
par ManetNetwork.dsdvRouter[0].ipv4.lp forwardServiceRegistration true
par ManetNetwork.dsdvRouter[0].ipv4.lp forwardProtocolRegistration true
par ManetNetwork.dsdvRouter[0].ipv4 typename "\"inet.networklayer.ipv4.Ipv4NetworkLayer\""
par ManetNetwork.dsdvRouter[0].ipv4 forwarding true
par ManetNetwork.dsdvRouter[0].ipv4 multicastForwarding false
par ManetNetwork.dsdvRouter[0].ipv4 interfaceTableModule "\"ManetNetwork.dsdvRouter[0].interfaceTable\""
par ManetNetwork.dsdvRouter[0].ipv4 displayStringTextFormat "\"%i\""
par ManetNetwork.dsdvRouter[0].nl typename "\"inet.common.MessageDispatcher\""
par ManetNetwork.dsdvRouter[0].nl displayStringTextFormat "\"processed %p pk (%l)\""
par ManetNetwork.dsdvRouter[0].nl forwardServiceRegistration true
par ManetNetwork.dsdvRouter[0].nl forwardProtocolRegistration true
par ManetNetwork.dsdvRouter[0].udp typename "\"inet.transportlayer.udp.Udp\""
par ManetNetwork.dsdvRouter[0].udp interfaceTableModule "\"ManetNetwork.dsdvRouter[0].interfaceTable\""
par ManetNetwork.dsdvRouter[0].udp icmpModule "\"^.ipv4.icmp\""
par ManetNetwork.dsdvRouter[0].udp icmpv6Module "\"^.ipv6.icmpv6\""
par ManetNetwork.dsdvRouter[0].udp crcMode "\"declared\""
attr enum disabled,declared,computed
par ManetNetwork.dsdvRouter[0].udp defaultMulticastLoop true
scalar ManetNetwork.dsdvRouter[0].udp packetReceived:count 0
attr interpolationmode none
attr recordingmode count
attr source packetReceived
attr title "packets received, count"
scalar ManetNetwork.dsdvRouter[0].udp packetReceived:sum(packetBytes) 0
attr interpolationmode none
attr recordingmode sum(packetBytes)
attr source packetReceived
attr title "packets received, sum(packetBytes)"
scalar ManetNetwork.dsdvRouter[0].udp packetSent:count 0
attr interpolationmode none
attr recordingmode count
attr source packetSent
attr title "packets sent, count"
scalar ManetNetwork.dsdvRouter[0].udp packetSent:sum(packetBytes) 0
attr interpolationmode none
attr recordingmode sum(packetBytes)
attr source packetSent
attr title "packets sent, sum(packetBytes)"
scalar ManetNetwork.dsdvRouter[0].udp passedUpPk:count 0
attr interpolationmode none
attr recordingmode count
attr source packetSentToUpper
attr title "packets passed up, count"
scalar ManetNetwork.dsdvRouter[0].udp droppedPkWrongPort:count 0
attr interpolationmode none
attr recordingmode count
attr source packetDropReasonIsNoPortFound(packetDropped)
attr title "packets dropped (wrong port), count"
scalar ManetNetwork.dsdvRouter[0].udp droppedPkBadChecksum:count 0
attr interpolationmode none
attr recordingmode count
attr source packetDropReasonIsIncorrectlyReceived(packetDropped)
attr title "packets dropped (checksum error), count"
par ManetNetwork.dsdvRouter[0].tcp typename "\"inet.transportlayer.tcp.Tcp\""
par ManetNetwork.dsdvRouter[0].tcp crcMode "\"declared\""
attr enum declared,computed
par ManetNetwork.dsdvRouter[0].tcp advertisedWindow 7504
par ManetNetwork.dsdvRouter[0].tcp delayedAcksEnabled false
par ManetNetwork.dsdvRouter[0].tcp nagleEnabled true
par ManetNetwork.dsdvRouter[0].tcp limitedTransmitEnabled false
par ManetNetwork.dsdvRouter[0].tcp increasedIWEnabled false
par ManetNetwork.dsdvRouter[0].tcp sackSupport false
par ManetNetwork.dsdvRouter[0].tcp windowScalingSupport false
par ManetNetwork.dsdvRouter[0].tcp windowScalingFactor -1
par ManetNetwork.dsdvRouter[0].tcp timestampSupport false
par ManetNetwork.dsdvRouter[0].tcp mss 536
par ManetNetwork.dsdvRouter[0].tcp msl 120s
attr unit s
par ManetNetwork.dsdvRouter[0].tcp tcpAlgorithmClass "\"TcpReno\""
par ManetNetwork.dsdvRouter[0].tcp useDataNotification false
par ManetNetwork.dsdvRouter[0].tcp dupthresh 3
par ManetNetwork.dsdvRouter[0].tcp initialSsthresh 4294967295
par ManetNetwork.dsdvRouter[0].tcp stopOperationExtraTime 0s
attr unit s
par ManetNetwork.dsdvRouter[0].tcp stopOperationTimeout 2s
attr unit s
par ManetNetwork.dsdvRouter[0].tcp ecnWillingness false
par ManetNetwork.dsdvRouter[0].tcp dctcpGamma 0.0625
par ManetNetwork.dsdvRouter[0].tn typename "\"inet.common.MessageDispatcher\""
par ManetNetwork.dsdvRouter[0].tn displayStringTextFormat "\"processed %p pk (%l)\""
par ManetNetwork.dsdvRouter[0].tn forwardServiceRegistration true
par ManetNetwork.dsdvRouter[0].tn forwardProtocolRegistration true
par ManetNetwork.dsdvRouter[0].app[0] typename "\"inet.applications.pingapp.PingApp\""
par ManetNetwork.dsdvRouter[0].app[0] destAddr "\"\""
par ManetNetwork.dsdvRouter[0].app[0] srcAddr "\"\""
par ManetNetwork.dsdvRouter[0].app[0] packetSize 56B
attr unit B
par ManetNetwork.dsdvRouter[0].app[0] sendInterval 1s
attr unit s
par ManetNetwork.dsdvRouter[0].app[0] hopLimit -1
par ManetNetwork.dsdvRouter[0].app[0] count -1
par ManetNetwork.dsdvRouter[0].app[0] startTime 3.19525s
attr unit s
par ManetNetwork.dsdvRouter[0].app[0] stopTime -1s
attr unit s
par ManetNetwork.dsdvRouter[0].app[0] sleepDuration 0s
attr unit s
par ManetNetwork.dsdvRouter[0].app[0] continuous false
par ManetNetwork.dsdvRouter[0].app[0] printPing true
par ManetNetwork.dsdvRouter[0].app[0] crcMode "\"declared\""
attr enum declared,computed
par ManetNetwork.dsdvRouter[0].app[0] networkProtocol "\"\""
par ManetNetwork.dsdvRouter[0].app[0] stopOperationExtraTime -1s
attr unit s
par ManetNetwork.dsdvRouter[0].app[0] stopOperationTimeout 2s
attr unit s
scalar ManetNetwork.dsdvRouter[0].app[0] pingRxSeq:count 0
attr interpolationmode none
attr recordingmode count
attr title "ping rx seq, count"
scalar ManetNetwork.dsdvRouter[0].app[0] pingTxSeq:count 0
attr interpolationmode none
attr recordingmode count
attr title "ping tx seq, count"
scalar ManetNetwork.dsdvRouter[0].app[0] numOutOfOrderArrivals:last nan
attr interpolationmode none
attr recordingmode last
attr title "ping out-of-order arrivals, last"
scalar ManetNetwork.dsdvRouter[0].app[0] numLost:last nan
attr interpolationmode none
attr recordingmode last
attr title "pings lost, last"
statistic ManetNetwork.dsdvRouter[0].app[0] rtt:histogram
field count 0
field mean nan
field stddev nan
field min nan
field max nan
field sum 0
field sqrsum 0
attr interpolationmode none
attr recordingmode histogram
attr title "ping round-trip time"
attr unit s
bin	-inf	0
bin	0	0
bin	1	0
par ManetNetwork.dsdvRouter[0].at typename "\"inet.common.MessageDispatcher\""
par ManetNetwork.dsdvRouter[0].at displayStringTextFormat "\"processed %p pk (%l)\""
par ManetNetwork.dsdvRouter[0].at forwardServiceRegistration true
par ManetNetwork.dsdvRouter[0].at forwardProtocolRegistration true
par ManetNetwork.dsdvRouter[0].dsdv typename "\"inet.routing.dsdv.Dsdv\""
par ManetNetwork.dsdvRouter[0].dsdv interfaceTableModule "\"ManetNetwork.dsdvRouter[0].interfaceTable\""
par ManetNetwork.dsdvRouter[0].dsdv routingTableModule "\"^.ipv4.routingTable\""
par ManetNetwork.dsdvRouter[0].dsdv helloInterval 5s
attr unit s
par ManetNetwork.dsdvRouter[0].dsdv netmask "\"255.255.0.0\""
par ManetNetwork.dsdvRouter[0].dsdv maxVariance 1
par ManetNetwork.dsdvRouter[0].dsdv routeLifetime 5s
attr unit s
par ManetNetwork.dsdvRouter[0].dsdv manetPurgeRoutingTables true
par ManetNetwork.dsdvRouter[0].dsdv broadcastDelay "uniform(0s, 0.01s)"
attr unit s
par ManetNetwork.dsdvRouter[0] typename "\"inet.node.dsdv.DsdvRouter\""
par ManetNetwork.dsdvRouter[0] hasStatus false
par ManetNetwork.dsdvRouter[0] osgModel "\"\""
par ManetNetwork.dsdvRouter[0] osgModelColor "\"\""
par ManetNetwork.dsdvRouter[0] canvasImage "\"\""
par ManetNetwork.dsdvRouter[0] canvasImageColor "\"\""
par ManetNetwork.dsdvRouter[0] recordPcap false
par ManetNetwork.dsdvRouter[0] numPcapRecorders 0
par ManetNetwork.dsdvRouter[0] numLoInterfaces 1
par ManetNetwork.dsdvRouter[0] numWlanInterfaces 1
par ManetNetwork.dsdvRouter[0] numEthInterfaces 0
par ManetNetwork.dsdvRouter[0] numPppInterfaces 0
par ManetNetwork.dsdvRouter[0] numTunInterfaces 0
par ManetNetwork.dsdvRouter[0] numVirtInterfaces 0
par ManetNetwork.dsdvRouter[0] fcsMode "\"declared\""
attr enum declared,computed
par ManetNetwork.dsdvRouter[0] hasIpv4 true
par ManetNetwork.dsdvRouter[0] hasIpv6 false
par ManetNetwork.dsdvRouter[0] hasGn false
par ManetNetwork.dsdvRouter[0] forwarding true
par ManetNetwork.dsdvRouter[0] multicastForwarding false
par ManetNetwork.dsdvRouter[0] hasUdp true
par ManetNetwork.dsdvRouter[0] hasTcp true
par ManetNetwork.dsdvRouter[0] hasSctp false
par ManetNetwork.dsdvRouter[0] numApps 1
par ManetNetwork.dsdvRouter[1].radioIn[0].channel typename "\"ned.IdealChannel\""
par ManetNetwork.dsdvRouter[1].mobility typename "\"inet.mobility.single.MassMobility\""
par ManetNetwork.dsdvRouter[1].mobility subjectModule "\"^\""
par ManetNetwork.dsdvRouter[1].mobility coordinateSystemModule "\"\""
par ManetNetwork.dsdvRouter[1].mobility displayStringTextFormat "\"p: %p\\nv: %v\""
attr mutable ""
par ManetNetwork.dsdvRouter[1].mobility updateDisplayString true
par ManetNetwork.dsdvRouter[1].mobility constraintAreaMinX 0m
attr unit m
par ManetNetwork.dsdvRouter[1].mobility constraintAreaMinY 0m
attr unit m
par ManetNetwork.dsdvRouter[1].mobility constraintAreaMinZ "-inf m"
attr unit m
par ManetNetwork.dsdvRouter[1].mobility constraintAreaMaxX 250m
attr unit m
par ManetNetwork.dsdvRouter[1].mobility constraintAreaMaxY 250m
attr unit m
par ManetNetwork.dsdvRouter[1].mobility constraintAreaMaxZ "inf m"
attr unit m
par ManetNetwork.dsdvRouter[1].mobility updateInterval 0.1s
attr unit s
par ManetNetwork.dsdvRouter[1].mobility faceForward true
par ManetNetwork.dsdvRouter[1].mobility initialX 0.0285953m
attr unit m
par ManetNetwork.dsdvRouter[1].mobility initialY 32.0311m
attr unit m
par ManetNetwork.dsdvRouter[1].mobility initialZ 0m
attr unit m
par ManetNetwork.dsdvRouter[1].mobility initialMovementHeading 359.655deg
attr unit deg
par ManetNetwork.dsdvRouter[1].mobility initialMovementElevation 0deg
attr unit deg
par ManetNetwork.dsdvRouter[1].mobility initFromDisplayString false
par ManetNetwork.dsdvRouter[1].mobility changeInterval "truncnormal(2s, 0.5s)"
attr unit s
par ManetNetwork.dsdvRouter[1].mobility angleDelta "normal(0deg, 30deg)"
attr unit deg
par ManetNetwork.dsdvRouter[1].mobility rotationAxisAngle 0deg
attr unit deg
par ManetNetwork.dsdvRouter[1].mobility speed "truncnormal(15mps, 5mps)"
attr mutable ""
attr unit mps
par ManetNetwork.dsdvRouter[1].interfaceTable typename "\"inet.networklayer.common.InterfaceTable\""
par ManetNetwork.dsdvRouter[1].interfaceTable displayAddresses false
par ManetNetwork.dsdvRouter[1].cb typename "\"inet.common.MessageDispatcher\""
par ManetNetwork.dsdvRouter[1].cb displayStringTextFormat "\"processed %p pk (%l)\""
par ManetNetwork.dsdvRouter[1].cb forwardServiceRegistration true
par ManetNetwork.dsdvRouter[1].cb forwardProtocolRegistration true
par ManetNetwork.dsdvRouter[1].bl typename "\"inet.common.MessageDispatcher\""
par ManetNetwork.dsdvRouter[1].bl displayStringTextFormat "\"processed %p pk (%l)\""
par ManetNetwork.dsdvRouter[1].bl forwardServiceRegistration true
par ManetNetwork.dsdvRouter[1].bl forwardProtocolRegistration true
par ManetNetwork.dsdvRouter[1].li typename "\"inet.common.MessageDispatcher\""
par ManetNetwork.dsdvRouter[1].li displayStringTextFormat "\"processed %p pk (%l)\""
par ManetNetwork.dsdvRouter[1].li forwardServiceRegistration true
par ManetNetwork.dsdvRouter[1].li forwardProtocolRegistration true
par ManetNetwork.dsdvRouter[1].lo[0].upperLayerIn.channel typename "\"ned.IdealChannel\""
par ManetNetwork.dsdvRouter[1].lo[0].lo.upperLayerOut.channel typename "\"ned.IdealChannel\""
par ManetNetwork.dsdvRouter[1].lo[0].lo typename "\"inet.linklayer.loopback.Loopback\""
par ManetNetwork.dsdvRouter[1].lo[0].lo interfaceTableModule "\"ManetNetwork.dsdvRouter[1].interfaceTable\""
par ManetNetwork.dsdvRouter[1].lo[0].lo mtu 4470B
attr unit B
scalar ManetNetwork.dsdvRouter[1].lo[0].lo rcvdPkFromHl:count 0
attr interpolationmode none
attr recordingmode count
attr source packetReceivedFromUpper
attr title "packets received from higher layer, count"
scalar ManetNetwork.dsdvRouter[1].lo[0].lo rcvdPkFromHl:sum(packetBytes) 0
attr interpolationmode none
attr recordingmode sum(packetBytes)
attr source packetReceivedFromUpper
attr title "packets received from higher layer, sum(packetBytes)"
scalar ManetNetwork.dsdvRouter[1].lo[0].lo passedUpPk:count 0
attr interpolationmode none
attr recordingmode count
attr source packetSentToUpper
attr title "packets passed to higher layer, count"
scalar ManetNetwork.dsdvRouter[1].lo[0].lo passedUpPk:sum(packetBytes) 0
attr interpolationmode none
attr recordingmode sum(packetBytes)
attr source packetSentToUpper
attr title "packets passed to higher layer, sum(packetBytes)"
par ManetNetwork.dsdvRouter[1].lo[0] typename "\"inet.linklayer.loopback.LoopbackInterface\""
par ManetNetwork.dsdvRouter[1].lo[0] displayStringTextFormat "\"%a (%i)\\n%m\""
par ManetNetwork.dsdvRouter[1].lo[0] recordPcap false
par ManetNetwork.dsdvRouter[1].lo[0] numPcapRecorders 0
par ManetNetwork.dsdvRouter[1].lo[0] interfaceTableModule "\"ManetNetwork.dsdvRouter[1].interfaceTable\""
scalar ManetNetwork.dsdvRouter[1].lo[0] packetDropInterfaceDown:count 0
attr interpolationmode none
attr recordingmode count
attr source packetDropReasonIsInterfaceDown(packetDropped)
attr title "packet drops: interface down, count"
scalar ManetNetwork.dsdvRouter[1].lo[0] packetDropInterfaceDown:sum(packetBytes) 0
attr interpolationmode none
attr recordingmode sum(packetBytes)
attr source packetDropReasonIsInterfaceDown(packetDropped)
attr title "packet drops: interface down, sum(packetBytes)"
scalar ManetNetwork.dsdvRouter[1].lo[0] packetDropNoCarrier:count 0
attr interpolationmode none
attr recordingmode count
attr source packetDropReasonIsNoCarrier(packetDropped)
attr title "packet drops: no carrier, count"
scalar ManetNetwork.dsdvRouter[1].lo[0] packetDropNoCarrier:sum(packetBytes) 0
attr interpolationmode none
attr recordingmode sum(packetBytes)
attr source packetDropReasonIsNoCarrier(packetDropped)
attr title "packet drops: no carrier, sum(packetBytes)"
par ManetNetwork.dsdvRouter[1].wlan[0].radioIn.channel typename "\"ned.IdealChannel\""
par ManetNetwork.dsdvRouter[1].wlan[0].llc.upperLayerOut.channel typename "\"ned.IdealChannel\""
[...]
field count 0
field mean nan
field stddev nan
field min nan
field max nan
field sum 0
field sqrsum 0
attr recordingmode histogram
attr source symbolErrorRate(packetSentToUpper)
attr title "Symbol error rate"
bin	-inf	0
bin	0	0
bin	1	0
scalar ManetNetwork.dsdvRouter[3].wlan[0].radio transmissionState:count 136
attr interpolationmode sample-hold
attr recordingmode count
attr source transmissionStateChanged
attr title "Radio transmission state, count"
scalar ManetNetwork.dsdvRouter[3].wlan[0].radio receptionState:count 274
attr interpolationmode sample-hold
attr recordingmode count
attr source receptionStateChanged
attr title "Radio reception state, count"
scalar ManetNetwork.dsdvRouter[3].wlan[0].radio radioMode:count 71
attr interpolationmode sample-hold
attr recordingmode count
attr source radioModeChanged
attr title "Radio mode, count"
statistic ManetNetwork.dsdvRouter[3].wlan[0].radio radioChannel:histogram
field count 1
field mean 0
field stddev nan
field min 0
field max 0
field sum 0
field sqrsum 0
attr interpolationmode sample-hold
attr recordingmode histogram
attr source radioChannelChanged
attr title "Radio channel"
bin	-inf	0
bin	-0.5	0
bin	-0.48	0
bin	-0.46	0
bin	-0.44	0
bin	-0.42	0
bin	-0.4	0
bin	-0.38	0
bin	-0.36	0
bin	-0.34	0
bin	-0.32	0
bin	-0.3	0
bin	-0.28	0
bin	-0.26	0
bin	-0.24	0
bin	-0.22	0
bin	-0.2	0
bin	-0.18	0
bin	-0.16	0
bin	-0.14	0
bin	-0.12	0
bin	-0.1	0
bin	-0.08	0
bin	-0.06	0
bin	-0.04	0
bin	-0.02	0
bin	0	1
bin	0.02	0
bin	0.04	0
bin	0.06	0
bin	0.08	0
bin	0.1	0
bin	0.12	0
bin	0.14	0
bin	0.16	0
bin	0.18	0
bin	0.2	0
bin	0.22	0
bin	0.24	0
bin	0.26	0
bin	0.28	0
bin	0.3	0
bin	0.32	0
bin	0.34	0
bin	0.36	0
bin	0.38	0
bin	0.4	0
bin	0.42	0
bin	0.44	0
bin	0.46	0
bin	0.48	0
bin	0.5	0
par ManetNetwork.dsdvRouter[3].wlan[0] typename "\"inet.linklayer.ieee80211.Ieee80211Interface\""
par ManetNetwork.dsdvRouter[3].wlan[0] displayStringTextFormat "\"%a (%i)\\n%m\""
par ManetNetwork.dsdvRouter[3].wlan[0] recordPcap false
par ManetNetwork.dsdvRouter[3].wlan[0] numPcapRecorders 0
par ManetNetwork.dsdvRouter[3].wlan[0] interfaceTableModule "\"ManetNetwork.dsdvRouter[3].interfaceTable\""
par ManetNetwork.dsdvRouter[3].wlan[0] energySourceModule "\"\""
par ManetNetwork.dsdvRouter[3].wlan[0] opMode "\"g(mixed)\""
attr enum a,b,g(erp),g(mixed),n(mixed-2.4Ghz),p,ac
par ManetNetwork.dsdvRouter[3].wlan[0] address "\"0A-AA-00-00-00-04\""
attr mutable ""
par ManetNetwork.dsdvRouter[3].wlan[0] protocol "\"\""
par ManetNetwork.dsdvRouter[3].wlan[0] bitrate 2e+06bps
attr unit bps
scalar ManetNetwork.dsdvRouter[3].wlan[0] packetDropInterfaceDown:count 0
attr interpolationmode none
attr recordingmode count
attr source packetDropReasonIsInterfaceDown(packetDropped)
attr title "packet drops: interface down, count"
scalar ManetNetwork.dsdvRouter[3].wlan[0] packetDropInterfaceDown:sum(packetBytes) 0
attr interpolationmode none
attr recordingmode sum(packetBytes)
attr source packetDropReasonIsInterfaceDown(packetDropped)
attr title "packet drops: interface down, sum(packetBytes)"
scalar ManetNetwork.dsdvRouter[3].wlan[0] packetDropNoCarrier:count 0
attr interpolationmode none
attr recordingmode count
attr source packetDropReasonIsNoCarrier(packetDropped)
attr title "packet drops: no carrier, count"
scalar ManetNetwork.dsdvRouter[3].wlan[0] packetDropNoCarrier:sum(packetBytes) 0
attr interpolationmode none
attr recordingmode sum(packetBytes)
attr source packetDropReasonIsNoCarrier(packetDropped)
attr title "packet drops: no carrier, sum(packetBytes)"
par ManetNetwork.dsdvRouter[3].ipv4.transportIn.channel typename "\"ned.IdealChannel\""
par ManetNetwork.dsdvRouter[3].ipv4.up.out[0].channel typename "\"ned.IdealChannel\""
par ManetNetwork.dsdvRouter[3].ipv4.lp.out[2].channel typename "\"ned.IdealChannel\""
par ManetNetwork.dsdvRouter[3].ipv4.ifIn.channel typename "\"ned.IdealChannel\""
par ManetNetwork.dsdvRouter[3].ipv4.configurator typename "\"inet.networklayer.configurator.ipv4.Ipv4NodeConfigurator\""
par ManetNetwork.dsdvRouter[3].ipv4.configurator interfaceTableModule "\"ManetNetwork.dsdvRouter[3].interfaceTable\""
par ManetNetwork.dsdvRouter[3].ipv4.configurator routingTableModule "\"ManetNetwork.dsdvRouter[3].ipv4.routingTable\""
par ManetNetwork.dsdvRouter[3].ipv4.configurator networkConfiguratorModule "\"configurator\""
par ManetNetwork.dsdvRouter[3].ipv4.configurator configureRoutingTable true
par ManetNetwork.dsdvRouter[3].ipv4.routingTable typename "\"inet.networklayer.ipv4.Ipv4RoutingTable\""
par ManetNetwork.dsdvRouter[3].ipv4.routingTable interfaceTableModule "\"ManetNetwork.dsdvRouter[3].interfaceTable\""
par ManetNetwork.dsdvRouter[3].ipv4.routingTable routerId "\"auto\""
par ManetNetwork.dsdvRouter[3].ipv4.routingTable netmaskRoutes "\"*\""
par ManetNetwork.dsdvRouter[3].ipv4.routingTable forwarding true
par ManetNetwork.dsdvRouter[3].ipv4.routingTable multicastForwarding false
par ManetNetwork.dsdvRouter[3].ipv4.routingTable useAdminDist false
par ManetNetwork.dsdvRouter[3].ipv4.routingTable routingFile "\"\""
par ManetNetwork.dsdvRouter[3].ipv4.natTable typename "\"inet.networklayer.ipv4.Ipv4NatTable\""
par ManetNetwork.dsdvRouter[3].ipv4.natTable networkProtocolModule "\"^.ip\""
par ManetNetwork.dsdvRouter[3].ipv4.natTable config "<config/> at content:1"
par ManetNetwork.dsdvRouter[3].ipv4.up typename "\"inet.common.MessageDispatcher\""
par ManetNetwork.dsdvRouter[3].ipv4.up displayStringTextFormat "\"processed %p pk (%l)\""
par ManetNetwork.dsdvRouter[3].ipv4.up forwardServiceRegistration true
par ManetNetwork.dsdvRouter[3].ipv4.up forwardProtocolRegistration true
par ManetNetwork.dsdvRouter[3].ipv4.igmp typename "\"inet.networklayer.ipv4.Igmpv2\""
par ManetNetwork.dsdvRouter[3].ipv4.igmp interfaceTableModule "\"ManetNetwork.dsdvRouter[3].interfaceTable\""
par ManetNetwork.dsdvRouter[3].ipv4.igmp routingTableModule "\"ManetNetwork.dsdvRouter[3].ipv4.routingTable\""
par ManetNetwork.dsdvRouter[3].ipv4.igmp crcMode "\"declared\""
attr enum declared,computed
par ManetNetwork.dsdvRouter[3].ipv4.igmp enabled true
par ManetNetwork.dsdvRouter[3].ipv4.igmp robustnessVariable 2
par ManetNetwork.dsdvRouter[3].ipv4.igmp queryInterval 125s
attr unit s
par ManetNetwork.dsdvRouter[3].ipv4.igmp queryResponseInterval 10s
attr unit s
par ManetNetwork.dsdvRouter[3].ipv4.igmp groupMembershipInterval 260s
attr unit s
par ManetNetwork.dsdvRouter[3].ipv4.igmp otherQuerierPresentInterval 255s
attr unit s
par ManetNetwork.dsdvRouter[3].ipv4.igmp startupQueryInterval 31.25s
attr unit s
par ManetNetwork.dsdvRouter[3].ipv4.igmp startupQueryCount 2
par ManetNetwork.dsdvRouter[3].ipv4.igmp lastMemberQueryInterval 1s
attr unit s
par ManetNetwork.dsdvRouter[3].ipv4.igmp lastMemberQueryCount 2
par ManetNetwork.dsdvRouter[3].ipv4.igmp unsolicitedReportInterval 10s
attr unit s
par ManetNetwork.dsdvRouter[3].ipv4.icmp typename "\"inet.networklayer.ipv4.Icmp\""
par ManetNetwork.dsdvRouter[3].ipv4.icmp interfaceTableModule "\"ManetNetwork.dsdvRouter[3].interfaceTable\""
par ManetNetwork.dsdvRouter[3].ipv4.icmp routingTableModule "\"ManetNetwork.dsdvRouter[3].ipv4.routingTable\""
par ManetNetwork.dsdvRouter[3].ipv4.icmp crcMode "\"declared\""
attr enum declared,computed
attr mutable ""
par ManetNetwork.dsdvRouter[3].ipv4.icmp quoteLength 8B
attr mutable ""
attr unit B
par ManetNetwork.dsdvRouter[3].ipv4.mp typename "\"inet.common.MessageDispatcher\""
par ManetNetwork.dsdvRouter[3].ipv4.mp displayStringTextFormat "\"processed %p pk (%l)\""
par ManetNetwork.dsdvRouter[3].ipv4.mp forwardServiceRegistration true
par ManetNetwork.dsdvRouter[3].ipv4.mp forwardProtocolRegistration true
par ManetNetwork.dsdvRouter[3].ipv4.ip typename "\"inet.networklayer.ipv4.Ipv4\""
par ManetNetwork.dsdvRouter[3].ipv4.ip interfaceTableModule "\"ManetNetwork.dsdvRouter[3].interfaceTable\""
par ManetNetwork.dsdvRouter[3].ipv4.ip routingTableModule "\"ManetNetwork.dsdvRouter[3].ipv4.routingTable\""
par ManetNetwork.dsdvRouter[3].ipv4.ip arpModule "\"ManetNetwork.dsdvRouter[3].ipv4.arp\""
par ManetNetwork.dsdvRouter[3].ipv4.ip icmpModule "\"ManetNetwork.dsdvRouter[3].ipv4.icmp\""
par ManetNetwork.dsdvRouter[3].ipv4.ip crcMode "\"declared\""
attr enum declared,computed
par ManetNetwork.dsdvRouter[3].ipv4.ip timeToLive 32
par ManetNetwork.dsdvRouter[3].ipv4.ip multicastTimeToLive 32
par ManetNetwork.dsdvRouter[3].ipv4.ip fragmentTimeout 60s
attr unit s
par ManetNetwork.dsdvRouter[3].ipv4.ip limitedBroadcast false
par ManetNetwork.dsdvRouter[3].ipv4.ip directBroadcastInterfaces "\"\""
scalar ManetNetwork.dsdvRouter[3].ipv4.ip packetDropAddressResolutionFailed:count 0
attr interpolationmode none
attr recordingmode count
attr source packetDropReasonIsAddressResolutionFailed(packetDropped)
attr title "packet drop: address resolution failed, count"
scalar ManetNetwork.dsdvRouter[3].ipv4.ip packetDropAddressResolutionFailed:sum(packetBytes) 0
attr interpolationmode none
attr recordingmode sum(packetBytes)
attr source packetDropReasonIsAddressResolutionFailed(packetDropped)
attr title "packet drop: address resolution failed, sum(packetBytes)"
scalar ManetNetwork.dsdvRouter[3].ipv4.ip packetDropHopLimitReached:count 0
attr interpolationmode none
attr recordingmode count
attr source packetDropReasonIsHopLimitReached(packetDropped)
attr title "packet drop: hop limit reached, count"
scalar ManetNetwork.dsdvRouter[3].ipv4.ip packetDropHopLimitReached:sum(packetBytes) 0
attr interpolationmode none
attr recordingmode sum(packetBytes)
attr source packetDropReasonIsHopLimitReached(packetDropped)
attr title "packet drop: hop limit reached, sum(packetBytes)"
scalar ManetNetwork.dsdvRouter[3].ipv4.ip packetDropForwardingDisabled:count 0
attr interpolationmode none
attr recordingmode count
attr source packetDropReasonIsForwardingDisabled(packetDropped)
attr title "packet drop: forwarding disabled, count"
scalar ManetNetwork.dsdvRouter[3].ipv4.ip packetDropForwardingDisabled:sum(packetBytes) 0
attr interpolationmode none
attr recordingmode sum(packetBytes)
attr source packetDropReasonIsForwardingDisabled(packetDropped)
attr title "packet drop: forwarding disabled, sum(packetBytes)"
scalar ManetNetwork.dsdvRouter[3].ipv4.ip packetDropNoInterfaceFound:count 0
attr interpolationmode none
attr recordingmode count
attr source packetDropReasonIsNoInterfaceFound(packetDropped)
attr title "packet drop: no interface found, count"
scalar ManetNetwork.dsdvRouter[3].ipv4.ip packetDropNoInterfaceFound:sum(packetBytes) 0
attr interpolationmode none
attr recordingmode sum(packetBytes)
attr source packetDropReasonIsNoInterfaceFound(packetDropped)
attr title "packet drop: no interface found, sum(packetBytes)"
scalar ManetNetwork.dsdvRouter[3].ipv4.ip packetDropNoRouteFound:count 0
attr interpolationmode none
attr recordingmode count
attr source packetDropReasonIsNoRouteFound(packetDropped)
attr title "packet drop: no route found, count"
scalar ManetNetwork.dsdvRouter[3].ipv4.ip packetDropNoRouteFound:sum(packetBytes) 0
attr interpolationmode none
attr recordingmode sum(packetBytes)
attr source packetDropReasonIsNoRouteFound(packetDropped)
attr title "packet drop: no route found, sum(packetBytes)"
scalar ManetNetwork.dsdvRouter[3].ipv4.ip packetDropUndefined:count 0
attr interpolationmode none
attr recordingmode count
attr source packetDropReasonIsUndefined(packetDropped)
attr title "packet drop: undefined, count"
scalar ManetNetwork.dsdvRouter[3].ipv4.ip packetDropUndefined:sum(packetBytes) 0
attr interpolationmode none
attr recordingmode sum(packetBytes)
attr source packetDropReasonIsUndefined(packetDropped)
attr title "packet drop: undefined, sum(packetBytes)"
par ManetNetwork.dsdvRouter[3].ipv4.arp typename "\"inet.networklayer.arp.ipv4.Arp\""
par ManetNetwork.dsdvRouter[3].ipv4.arp interfaceTableModule "\"ManetNetwork.dsdvRouter[3].interfaceTable\""
par ManetNetwork.dsdvRouter[3].ipv4.arp routingTableModule "\"ManetNetwork.dsdvRouter[3].ipv4.routingTable\""
par ManetNetwork.dsdvRouter[3].ipv4.arp retryTimeout 1s
attr unit s
par ManetNetwork.dsdvRouter[3].ipv4.arp retryCount 3
par ManetNetwork.dsdvRouter[3].ipv4.arp cacheTimeout 120s
attr unit s
par ManetNetwork.dsdvRouter[3].ipv4.arp proxyArpInterfaces "\"\""
scalar ManetNetwork.dsdvRouter[3].ipv4.arp arpReplySent:count 0
attr recordingmode count
attr source arpReplySent
attr title "ARP replies sent, count"
scalar ManetNetwork.dsdvRouter[3].ipv4.arp arpReplySent:sum(packetBytes) 0
attr recordingmode sum(packetBytes)
attr source arpReplySent
attr title "ARP replies sent, sum(packetBytes)"
scalar ManetNetwork.dsdvRouter[3].ipv4.arp arpRequestSent:count 0
attr recordingmode count
attr source arpRequestSent
attr title "ARP request sent, count"
scalar ManetNetwork.dsdvRouter[3].ipv4.arp arpRequestSent:sum(packetBytes) 0
attr recordingmode sum(packetBytes)
attr source arpRequestSent
attr title "ARP request sent, sum(packetBytes)"
scalar ManetNetwork.dsdvRouter[3].ipv4.arp arpResolutionFailed:count 0
attr recordingmode count
attr title "ARP failed resolutions, count"
scalar ManetNetwork.dsdvRouter[3].ipv4.arp arpResolutionCompleted:count 0
attr recordingmode count
attr title "ARP completed resolutions, count"
scalar ManetNetwork.dsdvRouter[3].ipv4.arp arpResolutionInitiated:count 0
attr recordingmode count
attr title "ARP initiated resolutions, count"
par ManetNetwork.dsdvRouter[3].ipv4.lp typename "\"inet.common.MessageDispatcher\""
par ManetNetwork.dsdvRouter[3].ipv4.lp displayStringTextFormat "\"processed %p pk (%l)\""
par ManetNetwork.dsdvRouter[3].ipv4.lp forwardServiceRegistration true
par ManetNetwork.dsdvRouter[3].ipv4.lp forwardProtocolRegistration true
par ManetNetwork.dsdvRouter[3].ipv4 typename "\"inet.networklayer.ipv4.Ipv4NetworkLayer\""
par ManetNetwork.dsdvRouter[3].ipv4 forwarding true
par ManetNetwork.dsdvRouter[3].ipv4 multicastForwarding false
par ManetNetwork.dsdvRouter[3].ipv4 interfaceTableModule "\"ManetNetwork.dsdvRouter[3].interfaceTable\""
par ManetNetwork.dsdvRouter[3].ipv4 displayStringTextFormat "\"%i\""
par ManetNetwork.dsdvRouter[3].nl typename "\"inet.common.MessageDispatcher\""
par ManetNetwork.dsdvRouter[3].nl displayStringTextFormat "\"processed %p pk (%l)\""
par ManetNetwork.dsdvRouter[3].nl forwardServiceRegistration true
par ManetNetwork.dsdvRouter[3].nl forwardProtocolRegistration true
par ManetNetwork.dsdvRouter[3].udp typename "\"inet.transportlayer.udp.Udp\""
par ManetNetwork.dsdvRouter[3].udp interfaceTableModule "\"ManetNetwork.dsdvRouter[3].interfaceTable\""
par ManetNetwork.dsdvRouter[3].udp icmpModule "\"^.ipv4.icmp\""
par ManetNetwork.dsdvRouter[3].udp icmpv6Module "\"^.ipv6.icmpv6\""
par ManetNetwork.dsdvRouter[3].udp crcMode "\"declared\""
attr enum disabled,declared,computed
par ManetNetwork.dsdvRouter[3].udp defaultMulticastLoop true
scalar ManetNetwork.dsdvRouter[3].udp packetReceived:count 0
attr interpolationmode none
attr recordingmode count
attr source packetReceived
attr title "packets received, count"
scalar ManetNetwork.dsdvRouter[3].udp packetReceived:sum(packetBytes) 0
attr interpolationmode none
attr recordingmode sum(packetBytes)
attr source packetReceived
attr title "packets received, sum(packetBytes)"
scalar ManetNetwork.dsdvRouter[3].udp packetSent:count 0
attr interpolationmode none
attr recordingmode count
attr source packetSent
attr title "packets sent, count"
scalar ManetNetwork.dsdvRouter[3].udp packetSent:sum(packetBytes) 0
attr interpolationmode none
attr recordingmode sum(packetBytes)
attr source packetSent
attr title "packets sent, sum(packetBytes)"
scalar ManetNetwork.dsdvRouter[3].udp passedUpPk:count 0
attr interpolationmode none
attr recordingmode count
attr source packetSentToUpper
attr title "packets passed up, count"
scalar ManetNetwork.dsdvRouter[3].udp droppedPkWrongPort:count 0
attr interpolationmode none
attr recordingmode count
attr source packetDropReasonIsNoPortFound(packetDropped)
attr title "packets dropped (wrong port), count"
scalar ManetNetwork.dsdvRouter[3].udp droppedPkBadChecksum:count 0
attr interpolationmode none
attr recordingmode count
attr source packetDropReasonIsIncorrectlyReceived(packetDropped)
attr title "packets dropped (checksum error), count"
par ManetNetwork.dsdvRouter[3].tcp typename "\"inet.transportlayer.tcp.Tcp\""
par ManetNetwork.dsdvRouter[3].tcp crcMode "\"declared\""
attr enum declared,computed
par ManetNetwork.dsdvRouter[3].tcp advertisedWindow 7504
par ManetNetwork.dsdvRouter[3].tcp delayedAcksEnabled false
par ManetNetwork.dsdvRouter[3].tcp nagleEnabled true
par ManetNetwork.dsdvRouter[3].tcp limitedTransmitEnabled false
par ManetNetwork.dsdvRouter[3].tcp increasedIWEnabled false
par ManetNetwork.dsdvRouter[3].tcp sackSupport false
par ManetNetwork.dsdvRouter[3].tcp windowScalingSupport false
par ManetNetwork.dsdvRouter[3].tcp windowScalingFactor -1
par ManetNetwork.dsdvRouter[3].tcp timestampSupport false
par ManetNetwork.dsdvRouter[3].tcp mss 536
par ManetNetwork.dsdvRouter[3].tcp msl 120s
attr unit s
par ManetNetwork.dsdvRouter[3].tcp tcpAlgorithmClass "\"TcpReno\""
par ManetNetwork.dsdvRouter[3].tcp useDataNotification false
par ManetNetwork.dsdvRouter[3].tcp dupthresh 3
par ManetNetwork.dsdvRouter[3].tcp initialSsthresh 4294967295
par ManetNetwork.dsdvRouter[3].tcp stopOperationExtraTime 0s
attr unit s
par ManetNetwork.dsdvRouter[3].tcp stopOperationTimeout 2s
attr unit s
par ManetNetwork.dsdvRouter[3].tcp ecnWillingness false
par ManetNetwork.dsdvRouter[3].tcp dctcpGamma 0.0625
par ManetNetwork.dsdvRouter[3].tn typename "\"inet.common.MessageDispatcher\""
par ManetNetwork.dsdvRouter[3].tn displayStringTextFormat "\"processed %p pk (%l)\""
par ManetNetwork.dsdvRouter[3].tn forwardServiceRegistration true
par ManetNetwork.dsdvRouter[3].tn forwardProtocolRegistration true
par ManetNetwork.dsdvRouter[3].at typename "\"inet.common.MessageDispatcher\""
par ManetNetwork.dsdvRouter[3].at displayStringTextFormat "\"processed %p pk (%l)\""
par ManetNetwork.dsdvRouter[3].at forwardServiceRegistration true
par ManetNetwork.dsdvRouter[3].at forwardProtocolRegistration true
par ManetNetwork.dsdvRouter[3].dsdv typename "\"inet.routing.dsdv.Dsdv\""
par ManetNetwork.dsdvRouter[3].dsdv interfaceTableModule "\"ManetNetwork.dsdvRouter[3].interfaceTable\""
par ManetNetwork.dsdvRouter[3].dsdv routingTableModule "\"^.ipv4.routingTable\""
par ManetNetwork.dsdvRouter[3].dsdv helloInterval 5s
attr unit s
par ManetNetwork.dsdvRouter[3].dsdv netmask "\"255.255.0.0\""
par ManetNetwork.dsdvRouter[3].dsdv maxVariance 1
par ManetNetwork.dsdvRouter[3].dsdv routeLifetime 5s
attr unit s
par ManetNetwork.dsdvRouter[3].dsdv manetPurgeRoutingTables true
par ManetNetwork.dsdvRouter[3].dsdv broadcastDelay "uniform(0s, 0.01s)"
attr unit s
par ManetNetwork.dsdvRouter[3] typename "\"inet.node.dsdv.DsdvRouter\""
par ManetNetwork.dsdvRouter[3] hasStatus false
par ManetNetwork.dsdvRouter[3] osgModel "\"\""
par ManetNetwork.dsdvRouter[3] osgModelColor "\"\""
par ManetNetwork.dsdvRouter[3] canvasImage "\"\""
par ManetNetwork.dsdvRouter[3] canvasImageColor "\"\""
par ManetNetwork.dsdvRouter[3] recordPcap false
par ManetNetwork.dsdvRouter[3] numPcapRecorders 0
par ManetNetwork.dsdvRouter[3] numLoInterfaces 1
par ManetNetwork.dsdvRouter[3] numWlanInterfaces 1
par ManetNetwork.dsdvRouter[3] numEthInterfaces 0
par ManetNetwork.dsdvRouter[3] numPppInterfaces 0
par ManetNetwork.dsdvRouter[3] numTunInterfaces 0
par ManetNetwork.dsdvRouter[3] numVirtInterfaces 0
par ManetNetwork.dsdvRouter[3] fcsMode "\"declared\""
attr enum declared,computed
par ManetNetwork.dsdvRouter[3] hasIpv4 true
par ManetNetwork.dsdvRouter[3] hasIpv6 false
par ManetNetwork.dsdvRouter[3] hasGn false
par ManetNetwork.dsdvRouter[3] forwarding true
par ManetNetwork.dsdvRouter[3] multicastForwarding false
par ManetNetwork.dsdvRouter[3] hasUdp true
par ManetNetwork.dsdvRouter[3] hasTcp true
par ManetNetwork.dsdvRouter[3] hasSctp false
par ManetNetwork.dsdvRouter[3] numApps 0
par ManetNetwork typename "\"manet2.ManetNetwork\""
par ManetNetwork numHosts 4

